Version 4
SHEET 1 1080 680
WIRE 64 -128 -128 -128
WIRE 512 -128 64 -128
WIRE 512 -112 512 -128
WIRE 464 -32 352 -32
WIRE 64 16 64 -128
WIRE 512 16 512 -16
WIRE 352 128 352 -32
WIRE 352 128 -16 128
WIRE 64 160 64 96
WIRE -128 192 -128 -128
WIRE 352 192 352 128
WIRE -16 240 -16 128
WIRE 16 240 -16 240
WIRE -128 320 -128 272
WIRE 64 320 64 256
WIRE 64 320 -128 320
WIRE 352 320 352 272
WIRE 352 320 64 320
WIRE 512 320 512 96
WIRE 512 320 352 320
WIRE -128 336 -128 320
FLAG -128 336 0
SYMBOL _PERSONAL\\nmos\\Toshiba\\SSM6L09FU_N 16 160 R0
SYMATTR InstName X1
SYMBOL _PERSONAL\\pmos\\Toshiba\\SSM6L09FU_P 464 -112 R0
SYMATTR InstName X2
SYMBOL voltage -128 176 M0
WINDOW 123 0 0 Left 0
WINDOW 39 0 0 Left 0
SYMATTR InstName V1
SYMATTR Value 15
SYMBOL res 48 0 R0
SYMATTR InstName R1
SYMATTR Value 100
SYMBOL res 496 0 R0
SYMATTR InstName R2
SYMATTR Value 100
SYMBOL voltage 352 176 R0
WINDOW 123 0 0 Left 0
WINDOW 39 0 0 Left 0
SYMATTR InstName V2
SYMATTR Value PULSE(0 15 0 1n 1n 500m 1)
TEXT -88 288 Left 2 !.tran 1
