**********************************************************************
*
*  Copyright (c) International Rectifier
*
*  IR2136: 3-Phase Bridge Driver
*   
*  Ports 
*         VCC: Low Side and Logic Fixed Supply
*         VSS: Logic Ground
*    HIN1,2,3: Logic Input for High Side Gate Driver Outputs (HO1,2,3). Out of Phase
*    LIN1,2,3: Logic Input for Low  Side Gate Driver Outputs (LO1,2,3). Out of Phase
*       FAULT: Indicator of Over-current(ITRIP) and Low Side Undervoltage Lockout
               Negative Logic. Open-drain Output
*          EN: Logic Input to Enable I/O Functionality. Positive Logic
*       ITRIP: Anlog Input for Overcurrent Shutdown
*        Rcin: External RC Network Input to Define FAULT CLEAR Delay  
*         COM: Low Side Gate Driver Output
*     VB1,2,3: High Side Floating Supply 
*     HO1,2,3: High Side Gate Driver Outputs
*     VS1,2,3: High Side Floating Supply Returns
*     LO1,2,3: Low Side Gate Driver Outputs
*
*  Created by Pspice Version 8 
*
*  Date Created: 05/2003
*
***********************************************************************
*
*  This behavioral model was developed in compliance with Data Sheet 
*  No. PD60166-O except noted below: 
*  (1) There is no frequency effect on temperature.
*  (2) The power dissipation is different. 
*  (3) The values of output high/low short circuit current are adjusted 
*      for the proper modeling of turn-on rise/turn-off fall time.
*  (4) "VSS" pin must be grounded.
*  
*  Note: User may adjust "ABSTOL" and/or "RELTOL" of ".options" to 
*        resolve possible convergence problem.
***********************************************************************

.SUBCKT IR2136 VCC HIN1 LIN1 HIN2 LIN2 HIN3 LIN3 FAULT EN RCIN ITRIP VSS 
+  VB1 HO1 VS1 VB2 HO2 VS2 VB3 HO3 VS3 LO1 LO2 LO3 COM
+PARAMS:  
+         Rdelay=15 Cdelay=15n 
+         T1=-40 T2=25 T3=125
+         V1=10 V2=15 V3=20
+         tFLTonT1=550n tFLTonT2=600n tFLTonT3=780n
+         tFLTonV1=620n tFLTonV2=600n tFLTonV3=590n
+         tFLToffT1=550n tFLToffT2=600n tFLToffT3=780n
+         tFLToffV1=620n tFLToffV2=600n tFLToffV3=590n
+         RfalltFLT=50 RrisetFLT=50 
+         tITRIPonT1=330n tITRIPonT2=350n tITRIPonT3=400n
+         tITRIPonV1=350n tITRIPonV2=350n tITRIPonV3=350n
+         tITRIPoffT1=330n tITRIPoffT2=350n tITRIPoffT3=400n
+         tITRIPoffV1=350n tITRIPoffV2=350n tITRIPoffV3=350n
+         RfalltITRIP=20 RrisetITRIP=20 
+         tonT1=155n tonT2=225n tonT3=340n
+         tonV1=270n tonV2=225n tonV3=185n
+         toffT1=130n toffT2=200n toffT3=300n
+         toffV1=230n toffV2=200n toffV3=170n
+         Rrise=12.5 Rfall=12.5 

.MODEL diode25 d
+IS=1.0e-14 RS=0.01 N=1 EG=1.11
+XTI=3 BV=25 IBV=0.0001 CJO=0
+VJ=0.75 M=0.333 FC=0.5 TT=0
+KF=0 AF=1

.MODEL diode625 d
+IS=1.0e-14 RS=0.01 N=1 EG=1.11
+XTI=3 BV=625 IBV=0.0001 CJO=0
+VJ=0.75 M=0.333 FC=0.5 TT=0
+KF=0 AF=1

.MODEL diode15 d
+IS=1.0e-14 RS=0.01 N=1 EG=1.11
+XTI=3 BV=15 IBV=0.0001 CJO=0
+VJ=0.75 M=0.333 FC=0.5 TT=0
+KF=0 AF=1

D_MD2_D5         0 VCC DIODE25 
V_MD2_Inv_V         MD2_Inv_2 0 5V
C_MD2_Inv_C         0 MD2_Nor2_1  10p  
R_MD2_Inv_R         MD2_Nor2_1 MD2_Inv_3  10  
S_MD2_Inv_P         MD2_Inv_2 MD2_Inv_3 MD1_Inv_1 0 _MD2_Inv_P
RS_MD2_Inv_P        MD1_Inv_1 0 1G
.MODEL        _MD2_Inv_P VSWITCH Roff=1e4 Ron=10 Voff=5V Von=0V
S_MD2_Inv_N         MD2_Inv_3 0 MD1_Inv_1 0 _MD2_Inv_N
RS_MD2_Inv_N        MD1_Inv_1 0 1G
.MODEL        _MD2_Inv_N VSWITCH Roff=1e4 Ron=10 Voff=0V Von=5V
C_MD2_C2         0 MD5_Inv2_1  10p  
C_MD2_C1         0 MD5_Inv1_1  10p  
V_MD2_Nor1_V         MD2_Nor1_3 0 5V
R_MD2_Nor1_R         MD5_Inv1_1 MD2_Nor1_5  10  
C_MD2_Nor1_C         0 MD5_Inv1_1  10p  
S_MD2_Nor1_P1         MD2_Nor1_3 MD2_Nor1_4 MD2_Trig1_tFLININ_9 0 _MD2_Nor1_P1
RS_MD2_Nor1_P1        MD2_Trig1_tFLININ_9 0 1G
.MODEL        _MD2_Nor1_P1 VSWITCH Roff=1e4 Ron=10 Voff=5V Von=0V
S_MD2_Nor1_P2         MD2_Nor1_4 MD2_Nor1_5 MD2_Nor2_1 0 _MD2_Nor1_P2
RS_MD2_Nor1_P2        MD2_Nor2_1 0 1G
.MODEL        _MD2_Nor1_P2 VSWITCH Roff=1e4 Ron=10 Voff=5V Von=0V
S_MD2_Nor1_N1         MD2_Nor1_5 0 MD2_Nor2_1 0 _MD2_Nor1_N1
RS_MD2_Nor1_N1        MD2_Nor2_1 0 1G
.MODEL        _MD2_Nor1_N1 VSWITCH Roff=1e4 Ron=10 Voff=0V Von=5V
S_MD2_Nor1_N2         MD2_Nor1_5 0 MD2_Trig1_tFLININ_9 0 _MD2_Nor1_N2
RS_MD2_Nor1_N2        MD2_Trig1_tFLININ_9 0 1G
.MODEL        _MD2_Nor1_N2 VSWITCH Roff=1e4 Ron=10 Voff=0V Von=5V
V_MD2_Nor2_V         MD2_Nor2_3 0 5V
R_MD2_Nor2_R         MD5_Inv2_1 MD2_Nor2_5  10  
C_MD2_Nor2_C         0 MD5_Inv2_1  10p  
S_MD2_Nor2_P1         MD2_Nor2_3 MD2_Nor2_4 MD2_Nor2_1 0 _MD2_Nor2_P1
RS_MD2_Nor2_P1        MD2_Nor2_1 0 1G
.MODEL        _MD2_Nor2_P1 VSWITCH Roff=1e4 Ron=10 Voff=5V Von=0V
S_MD2_Nor2_P2         MD2_Nor2_4 MD2_Nor2_5 MD2_Trig2_tFLININ_9 0 _MD2_Nor2_P2
RS_MD2_Nor2_P2        MD2_Trig2_tFLININ_9 0 1G
.MODEL        _MD2_Nor2_P2 VSWITCH Roff=1e4 Ron=10 Voff=5V Von=0V
S_MD2_Nor2_N1         MD2_Nor2_5 0 MD2_Trig2_tFLININ_9 0 _MD2_Nor2_N1
RS_MD2_Nor2_N1        MD2_Trig2_tFLININ_9 0 1G
.MODEL        _MD2_Nor2_N1 VSWITCH Roff=1e4 Ron=10 Voff=0V Von=5V
S_MD2_Nor2_N2         MD2_Nor2_5 0 MD2_Nor2_1 0 _MD2_Nor2_N2
RS_MD2_Nor2_N2        MD2_Nor2_1 0 1G
.MODEL        _MD2_Nor2_N2 VSWITCH Roff=1e4 Ron=10 Voff=0V Von=5V
R_MD2_Trig1_R         MD2_Trig1_tFLININ_1 MD2_Trig1_6  10  
C_MD2_Trig1_C         0 MD2_Trig1_tFLININ_1  10p  
X_MD2_Trig1_Comp         HIN2 MD2_Trig1_3 MD2_Trig1_6 COMP
R_MD2_Trig1_R3         0 MD2_Trig1_4  19.37Meg  
R_MD2_Trig1_R2         MD2_Trig1_4 MD2_Trig1_3  5.63Meg  
S_MD2_Trig1_P         MD2_Trig1_4 0 MD2_Trig1_6 0 _MD2_Trig1_P
RS_MD2_Trig1_P        MD2_Trig1_6 0 1G
.MODEL        _MD2_Trig1_P VSWITCH Roff=1e9 Ron=1 Voff=0 Von=5
R_MD2_Trig1_R1         MD2_Trig1_3 MD2_Trig1_1  100Meg  
E_MD2_Trig1_ABM18         MD2_Trig1_1 0 VALUE { 15V    }
C_MD2_Trig1_tFLININ_C1         0 MD2_Trig1_tFLININ_9  10p IC=0V 
C_MD2_Trig1_tFLININ_C2         0 MD2_Trig1_tFLININ_6  10p  
C_MD2_Trig1_tFLININ_C3         0 MD2_Trig1_tFLININ_7  10p  
C_MD2_Trig1_tFLININ_C         0 MD2_Trig1_tFLININ_4  10n  
V_MD2_Trig1_tFLININ_V1         MD2_Trig1_tFLININ_10 0 5V
V_MD2_Trig1_tFLININ_V2         MD2_Trig1_tFLININ_12 0 5V
V_MD2_Trig1_tFLININ_V         MD2_Trig1_tFLININ_3 0 5V
S_MD2_Trig1_tFLININ_P1         MD2_Trig1_tFLININ_10 MD2_Trig1_tFLININ_11
+  MD2_Trig1_tFLININ_6 0 _MD2_Trig1_tFLININ_P1
RS_MD2_Trig1_tFLININ_P1        MD2_Trig1_tFLININ_6 0 1G
.MODEL        _MD2_Trig1_tFLININ_P1 VSWITCH Roff=1e4 Ron=10 Voff=5 Von=0V
S_MD2_Trig1_tFLININ_P2         MD2_Trig1_tFLININ_11 MD2_Trig1_tFLININ_8
+  MD2_Trig1_tFLININ_9 0 _MD2_Trig1_tFLININ_P2
RS_MD2_Trig1_tFLININ_P2        MD2_Trig1_tFLININ_9 0 1G
.MODEL        _MD2_Trig1_tFLININ_P2 VSWITCH Roff=1e4 Ron=10 Voff=5 Von=0V
S_MD2_Trig1_tFLININ_N1         MD2_Trig1_tFLININ_8 0 MD2_Trig1_tFLININ_9 0
+  _MD2_Trig1_tFLININ_N1
RS_MD2_Trig1_tFLININ_N1        MD2_Trig1_tFLININ_9 0 1G
.MODEL        _MD2_Trig1_tFLININ_N1 VSWITCH Roff=1e4 Ron=10 Voff=0V Von=5
S_MD2_Trig1_tFLININ_N2         MD2_Trig1_tFLININ_8 0 MD2_Trig1_tFLININ_6 0
+  _MD2_Trig1_tFLININ_N2
RS_MD2_Trig1_tFLININ_N2        MD2_Trig1_tFLININ_6 0 1G
.MODEL        _MD2_Trig1_tFLININ_N2 VSWITCH Roff=1e4 Ron=10 Voff=0V Von=5
S_MD2_Trig1_tFLININ_P3         MD2_Trig1_tFLININ_12 MD2_Trig1_tFLININ_13
+  MD2_Trig1_tFLININ_8 0 _MD2_Trig1_tFLININ_P3
RS_MD2_Trig1_tFLININ_P3        MD2_Trig1_tFLININ_8 0 1G
.MODEL        _MD2_Trig1_tFLININ_P3 VSWITCH Roff=1e4 Ron=10 Voff=5 Von=0V
S_MD2_Trig1_tFLININ_P4         MD2_Trig1_tFLININ_13 MD2_Trig1_tFLININ_9
+  MD2_Trig1_tFLININ_7 0 _MD2_Trig1_tFLININ_P4
RS_MD2_Trig1_tFLININ_P4        MD2_Trig1_tFLININ_7 0 1G
.MODEL        _MD2_Trig1_tFLININ_P4 VSWITCH Roff=1e4 Ron=10 Voff=5 Von=0V
S_MD2_Trig1_tFLININ_N3         MD2_Trig1_tFLININ_9 0 MD2_Trig1_tFLININ_7 0
+  _MD2_Trig1_tFLININ_N3
RS_MD2_Trig1_tFLININ_N3        MD2_Trig1_tFLININ_7 0 1G
.MODEL        _MD2_Trig1_tFLININ_N3 VSWITCH Roff=1e4 Ron=10 Voff=0V Von=5
S_MD2_Trig1_tFLININ_N4         MD2_Trig1_tFLININ_9 0 MD2_Trig1_tFLININ_8 0
+  _MD2_Trig1_tFLININ_N4
RS_MD2_Trig1_tFLININ_N4        MD2_Trig1_tFLININ_8 0 1G
.MODEL        _MD2_Trig1_tFLININ_N4 VSWITCH Roff=1e4 Ron=10 Voff=0V Von=5
S_MD2_Trig1_tFLININ_P         MD2_Trig1_tFLININ_3 MD2_Trig1_tFLININ_4
+  MD2_Trig1_tFLININ_1 0 _MD2_Trig1_tFLININ_P
RS_MD2_Trig1_tFLININ_P        MD2_Trig1_tFLININ_1 0 1G
.MODEL        _MD2_Trig1_tFLININ_P VSWITCH Roff=1e6 Ron=10 Voff=5V Von=0V
S_MD2_Trig1_tFLININ_N         MD2_Trig1_tFLININ_4 0 MD2_Trig1_tFLININ_1 0
+  _MD2_Trig1_tFLININ_N
RS_MD2_Trig1_tFLININ_N        MD2_Trig1_tFLININ_1 0 1G
.MODEL        _MD2_Trig1_tFLININ_N VSWITCH Roff=1e6 Ron=10 Voff=0V Von=5V
X_MD2_Trig1_tFLININ_comp1         MD2_Trig1_tFLININ_2 MD2_Trig1_tFLININ_4
+  MD2_Trig1_tFLININ_6 COMP
X_MD2_Trig1_tFLININ_comp2         MD2_Trig1_tFLININ_4 MD2_Trig1_tFLININ_5
+  MD2_Trig1_tFLININ_7 COMP
E_MD2_Trig1_tFLININ_ABM1         MD2_Trig1_tFLININ_2 0 VALUE {
+  5*EXP(-200n/10/10n)    }
E_MD2_Trig1_tFLININ_ABM2         MD2_Trig1_tFLININ_5 0 VALUE { 5-5*
+  EXP(-200n/10/10n)    }
R_MD2_Trig2_R         MD2_Trig2_tFLININ_1 MD2_Trig2_6  10  
C_MD2_Trig2_C         0 MD2_Trig2_tFLININ_1  10p  
X_MD2_Trig2_Comp         LIN2 MD2_Trig2_3 MD2_Trig2_6 COMP
R_MD2_Trig2_R3         0 MD2_Trig2_4  19.37Meg  
R_MD2_Trig2_R2         MD2_Trig2_4 MD2_Trig2_3  5.63Meg  
S_MD2_Trig2_P         MD2_Trig2_4 0 MD2_Trig2_6 0 _MD2_Trig2_P
RS_MD2_Trig2_P        MD2_Trig2_6 0 1G
.MODEL        _MD2_Trig2_P VSWITCH Roff=1e9 Ron=1 Voff=0 Von=5
R_MD2_Trig2_R1         MD2_Trig2_3 MD2_Trig2_1  100Meg  
E_MD2_Trig2_ABM18         MD2_Trig2_1 0 VALUE { 15V    }
C_MD2_Trig2_tFLININ_C1         0 MD2_Trig2_tFLININ_9  10p IC=0V 
C_MD2_Trig2_tFLININ_C2         0 MD2_Trig2_tFLININ_6  10p  
C_MD2_Trig2_tFLININ_C3         0 MD2_Trig2_tFLININ_7  10p  
C_MD2_Trig2_tFLININ_C         0 MD2_Trig2_tFLININ_4  10n  
V_MD2_Trig2_tFLININ_V1         MD2_Trig2_tFLININ_10 0 5V
V_MD2_Trig2_tFLININ_V2         MD2_Trig2_tFLININ_12 0 5V
V_MD2_Trig2_tFLININ_V         MD2_Trig2_tFLININ_3 0 5V
S_MD2_Trig2_tFLININ_P1         MD2_Trig2_tFLININ_10 MD2_Trig2_tFLININ_11
+  MD2_Trig2_tFLININ_6 0 _MD2_Trig2_tFLININ_P1
RS_MD2_Trig2_tFLININ_P1        MD2_Trig2_tFLININ_6 0 1G
.MODEL        _MD2_Trig2_tFLININ_P1 VSWITCH Roff=1e4 Ron=10 Voff=5 Von=0V
S_MD2_Trig2_tFLININ_P2         MD2_Trig2_tFLININ_11 MD2_Trig2_tFLININ_8
+  MD2_Trig2_tFLININ_9 0 _MD2_Trig2_tFLININ_P2
RS_MD2_Trig2_tFLININ_P2        MD2_Trig2_tFLININ_9 0 1G
.MODEL        _MD2_Trig2_tFLININ_P2 VSWITCH Roff=1e4 Ron=10 Voff=5 Von=0V
S_MD2_Trig2_tFLININ_N1         MD2_Trig2_tFLININ_8 0 MD2_Trig2_tFLININ_9 0
+  _MD2_Trig2_tFLININ_N1
RS_MD2_Trig2_tFLININ_N1        MD2_Trig2_tFLININ_9 0 1G
.MODEL        _MD2_Trig2_tFLININ_N1 VSWITCH Roff=1e4 Ron=10 Voff=0V Von=5
S_MD2_Trig2_tFLININ_N2         MD2_Trig2_tFLININ_8 0 MD2_Trig2_tFLININ_6 0
+  _MD2_Trig2_tFLININ_N2
RS_MD2_Trig2_tFLININ_N2        MD2_Trig2_tFLININ_6 0 1G
.MODEL        _MD2_Trig2_tFLININ_N2 VSWITCH Roff=1e4 Ron=10 Voff=0V Von=5
S_MD2_Trig2_tFLININ_P3         MD2_Trig2_tFLININ_12 MD2_Trig2_tFLININ_13
+  MD2_Trig2_tFLININ_8 0 _MD2_Trig2_tFLININ_P3
RS_MD2_Trig2_tFLININ_P3        MD2_Trig2_tFLININ_8 0 1G
.MODEL        _MD2_Trig2_tFLININ_P3 VSWITCH Roff=1e4 Ron=10 Voff=5 Von=0V
S_MD2_Trig2_tFLININ_P4         MD2_Trig2_tFLININ_13 MD2_Trig2_tFLININ_9
+  MD2_Trig2_tFLININ_7 0 _MD2_Trig2_tFLININ_P4
RS_MD2_Trig2_tFLININ_P4        MD2_Trig2_tFLININ_7 0 1G
.MODEL        _MD2_Trig2_tFLININ_P4 VSWITCH Roff=1e4 Ron=10 Voff=5 Von=0V
S_MD2_Trig2_tFLININ_N3         MD2_Trig2_tFLININ_9 0 MD2_Trig2_tFLININ_7 0
+  _MD2_Trig2_tFLININ_N3
RS_MD2_Trig2_tFLININ_N3        MD2_Trig2_tFLININ_7 0 1G
.MODEL        _MD2_Trig2_tFLININ_N3 VSWITCH Roff=1e4 Ron=10 Voff=0V Von=5
S_MD2_Trig2_tFLININ_N4         MD2_Trig2_tFLININ_9 0 MD2_Trig2_tFLININ_8 0
+  _MD2_Trig2_tFLININ_N4
RS_MD2_Trig2_tFLININ_N4        MD2_Trig2_tFLININ_8 0 1G
.MODEL        _MD2_Trig2_tFLININ_N4 VSWITCH Roff=1e4 Ron=10 Voff=0V Von=5
S_MD2_Trig2_tFLININ_P         MD2_Trig2_tFLININ_3 MD2_Trig2_tFLININ_4
+  MD2_Trig2_tFLININ_1 0 _MD2_Trig2_tFLININ_P
RS_MD2_Trig2_tFLININ_P        MD2_Trig2_tFLININ_1 0 1G
.MODEL        _MD2_Trig2_tFLININ_P VSWITCH Roff=1e6 Ron=10 Voff=5V Von=0V
S_MD2_Trig2_tFLININ_N         MD2_Trig2_tFLININ_4 0 MD2_Trig2_tFLININ_1 0
+  _MD2_Trig2_tFLININ_N
RS_MD2_Trig2_tFLININ_N        MD2_Trig2_tFLININ_1 0 1G
.MODEL        _MD2_Trig2_tFLININ_N VSWITCH Roff=1e6 Ron=10 Voff=0V Von=5V
X_MD2_Trig2_tFLININ_comp1         MD2_Trig2_tFLININ_2 MD2_Trig2_tFLININ_4
+  MD2_Trig2_tFLININ_6 COMP
X_MD2_Trig2_tFLININ_comp2         MD2_Trig2_tFLININ_4 MD2_Trig2_tFLININ_5
+  MD2_Trig2_tFLININ_7 COMP
E_MD2_Trig2_tFLININ_ABM1         MD2_Trig2_tFLININ_2 0 VALUE {
+  5*EXP(-200n/10/10n)    }
E_MD2_Trig2_tFLININ_ABM2         MD2_Trig2_tFLININ_5 0 VALUE { 5-5*
+  EXP(-200n/10/10n)    }
R_MD2_R2         HIN2 VCC 100k TC=-0.0109461, 0.000068284
R_MD2_R1         LIN2 VCC 100k TC=-0.0109461, 0.000068284
D_MD2_D1         HIN2 VCC DIODE25 
D_MD2_D2         0 HIN2 DIODE15 
D_MD2_D3         LIN2 VCC DIODE25 
D_MD2_D4         0 LIN2 DIODE15 
D_MD3_D5         0 VCC DIODE25 
V_MD3_Inv_V         MD3_Inv_2 0 5V
C_MD3_Inv_C         0 MD3_Nor2_1  10p  
R_MD3_Inv_R         MD3_Nor2_1 MD3_Inv_3  10  
S_MD3_Inv_P         MD3_Inv_2 MD3_Inv_3 MD1_Inv_1 0 _MD3_Inv_P
RS_MD3_Inv_P        MD1_Inv_1 0 1G
.MODEL        _MD3_Inv_P VSWITCH Roff=1e4 Ron=10 Voff=5V Von=0V
S_MD3_Inv_N         MD3_Inv_3 0 MD1_Inv_1 0 _MD3_Inv_N
RS_MD3_Inv_N        MD1_Inv_1 0 1G
.MODEL        _MD3_Inv_N VSWITCH Roff=1e4 Ron=10 Voff=0V Von=5V
C_MD3_C2         0 MD6_Inv2_1  10p  
C_MD3_C1         0 MD6_Inv1_1  10p  
V_MD3_Nor1_V         MD3_Nor1_3 0 5V
R_MD3_Nor1_R         MD6_Inv1_1 MD3_Nor1_5  10  
C_MD3_Nor1_C         0 MD6_Inv1_1  10p  
S_MD3_Nor1_P1         MD3_Nor1_3 MD3_Nor1_4 MD3_Trig1_tFLININ_9 0 _MD3_Nor1_P1
RS_MD3_Nor1_P1        MD3_Trig1_tFLININ_9 0 1G
.MODEL        _MD3_Nor1_P1 VSWITCH Roff=1e4 Ron=10 Voff=5V Von=0V
S_MD3_Nor1_P2         MD3_Nor1_4 MD3_Nor1_5 MD3_Nor2_1 0 _MD3_Nor1_P2
RS_MD3_Nor1_P2        MD3_Nor2_1 0 1G
.MODEL        _MD3_Nor1_P2 VSWITCH Roff=1e4 Ron=10 Voff=5V Von=0V
S_MD3_Nor1_N1         MD3_Nor1_5 0 MD3_Nor2_1 0 _MD3_Nor1_N1
RS_MD3_Nor1_N1        MD3_Nor2_1 0 1G
.MODEL        _MD3_Nor1_N1 VSWITCH Roff=1e4 Ron=10 Voff=0V Von=5V
S_MD3_Nor1_N2         MD3_Nor1_5 0 MD3_Trig1_tFLININ_9 0 _MD3_Nor1_N2
RS_MD3_Nor1_N2        MD3_Trig1_tFLININ_9 0 1G
.MODEL        _MD3_Nor1_N2 VSWITCH Roff=1e4 Ron=10 Voff=0V Von=5V
V_MD3_Nor2_V         MD3_Nor2_3 0 5V
R_MD3_Nor2_R         MD6_Inv2_1 MD3_Nor2_5  10  
C_MD3_Nor2_C         0 MD6_Inv2_1  10p  
S_MD3_Nor2_P1         MD3_Nor2_3 MD3_Nor2_4 MD3_Nor2_1 0 _MD3_Nor2_P1
RS_MD3_Nor2_P1        MD3_Nor2_1 0 1G
.MODEL        _MD3_Nor2_P1 VSWITCH Roff=1e4 Ron=10 Voff=5V Von=0V
S_MD3_Nor2_P2         MD3_Nor2_4 MD3_Nor2_5 MD3_Trig2_tFLININ_9 0 _MD3_Nor2_P2
RS_MD3_Nor2_P2        MD3_Trig2_tFLININ_9 0 1G
.MODEL        _MD3_Nor2_P2 VSWITCH Roff=1e4 Ron=10 Voff=5V Von=0V
S_MD3_Nor2_N1         MD3_Nor2_5 0 MD3_Trig2_tFLININ_9 0 _MD3_Nor2_N1
RS_MD3_Nor2_N1        MD3_Trig2_tFLININ_9 0 1G
.MODEL        _MD3_Nor2_N1 VSWITCH Roff=1e4 Ron=10 Voff=0V Von=5V
S_MD3_Nor2_N2         MD3_Nor2_5 0 MD3_Nor2_1 0 _MD3_Nor2_N2
RS_MD3_Nor2_N2        MD3_Nor2_1 0 1G
.MODEL        _MD3_Nor2_N2 VSWITCH Roff=1e4 Ron=10 Voff=0V Von=5V
R_MD3_Trig1_R         MD3_Trig1_tFLININ_1 MD3_Trig1_6  10  
C_MD3_Trig1_C         0 MD3_Trig1_tFLININ_1  10p  
X_MD3_Trig1_Comp         HIN3 MD3_Trig1_3 MD3_Trig1_6 COMP
R_MD3_Trig1_R3         0 MD3_Trig1_4  19.37Meg  
R_MD3_Trig1_R2         MD3_Trig1_4 MD3_Trig1_3  5.63Meg  
S_MD3_Trig1_P         MD3_Trig1_4 0 MD3_Trig1_6 0 _MD3_Trig1_P
RS_MD3_Trig1_P        MD3_Trig1_6 0 1G
.MODEL        _MD3_Trig1_P VSWITCH Roff=1e9 Ron=1 Voff=0 Von=5
R_MD3_Trig1_R1         MD3_Trig1_3 MD3_Trig1_1  100Meg  
E_MD3_Trig1_ABM18         MD3_Trig1_1 0 VALUE { 15V    }
C_MD3_Trig1_tFLININ_C1         0 MD3_Trig1_tFLININ_9  10p IC=0V 
C_MD3_Trig1_tFLININ_C2         0 MD3_Trig1_tFLININ_6  10p  
C_MD3_Trig1_tFLININ_C3         0 MD3_Trig1_tFLININ_7  10p  
C_MD3_Trig1_tFLININ_C         0 MD3_Trig1_tFLININ_4  10n  
V_MD3_Trig1_tFLININ_V1         MD3_Trig1_tFLININ_10 0 5V
V_MD3_Trig1_tFLININ_V2         MD3_Trig1_tFLININ_12 0 5V
V_MD3_Trig1_tFLININ_V         MD3_Trig1_tFLININ_3 0 5V
S_MD3_Trig1_tFLININ_P1         MD3_Trig1_tFLININ_10 MD3_Trig1_tFLININ_11
+  MD3_Trig1_tFLININ_6 0 _MD3_Trig1_tFLININ_P1
RS_MD3_Trig1_tFLININ_P1        MD3_Trig1_tFLININ_6 0 1G
.MODEL        _MD3_Trig1_tFLININ_P1 VSWITCH Roff=1e4 Ron=10 Voff=5 Von=0V
S_MD3_Trig1_tFLININ_P2         MD3_Trig1_tFLININ_11 MD3_Trig1_tFLININ_8
+  MD3_Trig1_tFLININ_9 0 _MD3_Trig1_tFLININ_P2
RS_MD3_Trig1_tFLININ_P2        MD3_Trig1_tFLININ_9 0 1G
.MODEL        _MD3_Trig1_tFLININ_P2 VSWITCH Roff=1e4 Ron=10 Voff=5 Von=0V
S_MD3_Trig1_tFLININ_N1         MD3_Trig1_tFLININ_8 0 MD3_Trig1_tFLININ_9 0
+  _MD3_Trig1_tFLININ_N1
RS_MD3_Trig1_tFLININ_N1        MD3_Trig1_tFLININ_9 0 1G
.MODEL        _MD3_Trig1_tFLININ_N1 VSWITCH Roff=1e4 Ron=10 Voff=0V Von=5
S_MD3_Trig1_tFLININ_N2         MD3_Trig1_tFLININ_8 0 MD3_Trig1_tFLININ_6 0
+  _MD3_Trig1_tFLININ_N2
RS_MD3_Trig1_tFLININ_N2        MD3_Trig1_tFLININ_6 0 1G
.MODEL        _MD3_Trig1_tFLININ_N2 VSWITCH Roff=1e4 Ron=10 Voff=0V Von=5
S_MD3_Trig1_tFLININ_P3         MD3_Trig1_tFLININ_12 MD3_Trig1_tFLININ_13
+  MD3_Trig1_tFLININ_8 0 _MD3_Trig1_tFLININ_P3
RS_MD3_Trig1_tFLININ_P3        MD3_Trig1_tFLININ_8 0 1G
.MODEL        _MD3_Trig1_tFLININ_P3 VSWITCH Roff=1e4 Ron=10 Voff=5 Von=0V
S_MD3_Trig1_tFLININ_P4         MD3_Trig1_tFLININ_13 MD3_Trig1_tFLININ_9
+  MD3_Trig1_tFLININ_7 0 _MD3_Trig1_tFLININ_P4
RS_MD3_Trig1_tFLININ_P4        MD3_Trig1_tFLININ_7 0 1G
.MODEL        _MD3_Trig1_tFLININ_P4 VSWITCH Roff=1e4 Ron=10 Voff=5 Von=0V
S_MD3_Trig1_tFLININ_N3         MD3_Trig1_tFLININ_9 0 MD3_Trig1_tFLININ_7 0
+  _MD3_Trig1_tFLININ_N3
RS_MD3_Trig1_tFLININ_N3        MD3_Trig1_tFLININ_7 0 1G
.MODEL        _MD3_Trig1_tFLININ_N3 VSWITCH Roff=1e4 Ron=10 Voff=0V Von=5
S_MD3_Trig1_tFLININ_N4         MD3_Trig1_tFLININ_9 0 MD3_Trig1_tFLININ_8 0
+  _MD3_Trig1_tFLININ_N4
RS_MD3_Trig1_tFLININ_N4        MD3_Trig1_tFLININ_8 0 1G
.MODEL        _MD3_Trig1_tFLININ_N4 VSWITCH Roff=1e4 Ron=10 Voff=0V Von=5
S_MD3_Trig1_tFLININ_P         MD3_Trig1_tFLININ_3 MD3_Trig1_tFLININ_4
+  MD3_Trig1_tFLININ_1 0 _MD3_Trig1_tFLININ_P
RS_MD3_Trig1_tFLININ_P        MD3_Trig1_tFLININ_1 0 1G
.MODEL        _MD3_Trig1_tFLININ_P VSWITCH Roff=1e6 Ron=10 Voff=5V Von=0V
S_MD3_Trig1_tFLININ_N         MD3_Trig1_tFLININ_4 0 MD3_Trig1_tFLININ_1 0
+  _MD3_Trig1_tFLININ_N
RS_MD3_Trig1_tFLININ_N        MD3_Trig1_tFLININ_1 0 1G
.MODEL        _MD3_Trig1_tFLININ_N VSWITCH Roff=1e6 Ron=10 Voff=0V Von=5V
X_MD3_Trig1_tFLININ_comp1         MD3_Trig1_tFLININ_2 MD3_Trig1_tFLININ_4
+  MD3_Trig1_tFLININ_6 COMP
X_MD3_Trig1_tFLININ_comp2         MD3_Trig1_tFLININ_4 MD3_Trig1_tFLININ_5
+  MD3_Trig1_tFLININ_7 COMP
E_MD3_Trig1_tFLININ_ABM1         MD3_Trig1_tFLININ_2 0 VALUE {
+  5*EXP(-200n/10/10n)    }
E_MD3_Trig1_tFLININ_ABM2         MD3_Trig1_tFLININ_5 0 VALUE { 5-5*
+  EXP(-200n/10/10n)    }
R_MD3_Trig2_R         MD3_Trig2_tFLININ_1 MD3_Trig2_6  10  
C_MD3_Trig2_C         0 MD3_Trig2_tFLININ_1  10p  
X_MD3_Trig2_Comp         LIN3 MD3_Trig2_3 MD3_Trig2_6 COMP
R_MD3_Trig2_R3         0 MD3_Trig2_4  19.37Meg  
R_MD3_Trig2_R2         MD3_Trig2_4 MD3_Trig2_3  5.63Meg  
S_MD3_Trig2_P         MD3_Trig2_4 0 MD3_Trig2_6 0 _MD3_Trig2_P
RS_MD3_Trig2_P        MD3_Trig2_6 0 1G
.MODEL        _MD3_Trig2_P VSWITCH Roff=1e9 Ron=1 Voff=0 Von=5
R_MD3_Trig2_R1         MD3_Trig2_3 MD3_Trig2_1  100Meg  
E_MD3_Trig2_ABM18         MD3_Trig2_1 0 VALUE { 15V    }
C_MD3_Trig2_tFLININ_C1         0 MD3_Trig2_tFLININ_9  10p IC=0V 
C_MD3_Trig2_tFLININ_C2         0 MD3_Trig2_tFLININ_6  10p  
C_MD3_Trig2_tFLININ_C3         0 MD3_Trig2_tFLININ_7  10p  
C_MD3_Trig2_tFLININ_C         0 MD3_Trig2_tFLININ_4  10n  
V_MD3_Trig2_tFLININ_V1         MD3_Trig2_tFLININ_10 0 5V
V_MD3_Trig2_tFLININ_V2         MD3_Trig2_tFLININ_12 0 5V
V_MD3_Trig2_tFLININ_V         MD3_Trig2_tFLININ_3 0 5V
S_MD3_Trig2_tFLININ_P1         MD3_Trig2_tFLININ_10 MD3_Trig2_tFLININ_11
+  MD3_Trig2_tFLININ_6 0 _MD3_Trig2_tFLININ_P1
RS_MD3_Trig2_tFLININ_P1        MD3_Trig2_tFLININ_6 0 1G
.MODEL        _MD3_Trig2_tFLININ_P1 VSWITCH Roff=1e4 Ron=10 Voff=5 Von=0V
S_MD3_Trig2_tFLININ_P2         MD3_Trig2_tFLININ_11 MD3_Trig2_tFLININ_8
+  MD3_Trig2_tFLININ_9 0 _MD3_Trig2_tFLININ_P2
RS_MD3_Trig2_tFLININ_P2        MD3_Trig2_tFLININ_9 0 1G
.MODEL        _MD3_Trig2_tFLININ_P2 VSWITCH Roff=1e4 Ron=10 Voff=5 Von=0V
S_MD3_Trig2_tFLININ_N1         MD3_Trig2_tFLININ_8 0 MD3_Trig2_tFLININ_9 0
+  _MD3_Trig2_tFLININ_N1
RS_MD3_Trig2_tFLININ_N1        MD3_Trig2_tFLININ_9 0 1G
.MODEL        _MD3_Trig2_tFLININ_N1 VSWITCH Roff=1e4 Ron=10 Voff=0V Von=5
S_MD3_Trig2_tFLININ_N2         MD3_Trig2_tFLININ_8 0 MD3_Trig2_tFLININ_6 0
+  _MD3_Trig2_tFLININ_N2
RS_MD3_Trig2_tFLININ_N2        MD3_Trig2_tFLININ_6 0 1G
.MODEL        _MD3_Trig2_tFLININ_N2 VSWITCH Roff=1e4 Ron=10 Voff=0V Von=5
S_MD3_Trig2_tFLININ_P3         MD3_Trig2_tFLININ_12 MD3_Trig2_tFLININ_13
+  MD3_Trig2_tFLININ_8 0 _MD3_Trig2_tFLININ_P3
RS_MD3_Trig2_tFLININ_P3        MD3_Trig2_tFLININ_8 0 1G
.MODEL        _MD3_Trig2_tFLININ_P3 VSWITCH Roff=1e4 Ron=10 Voff=5 Von=0V
S_MD3_Trig2_tFLININ_P4         MD3_Trig2_tFLININ_13 MD3_Trig2_tFLININ_9
+  MD3_Trig2_tFLININ_7 0 _MD3_Trig2_tFLININ_P4
RS_MD3_Trig2_tFLININ_P4        MD3_Trig2_tFLININ_7 0 1G
.MODEL        _MD3_Trig2_tFLININ_P4 VSWITCH Roff=1e4 Ron=10 Voff=5 Von=0V
S_MD3_Trig2_tFLININ_N3         MD3_Trig2_tFLININ_9 0 MD3_Trig2_tFLININ_7 0
+  _MD3_Trig2_tFLININ_N3
RS_MD3_Trig2_tFLININ_N3        MD3_Trig2_tFLININ_7 0 1G
.MODEL        _MD3_Trig2_tFLININ_N3 VSWITCH Roff=1e4 Ron=10 Voff=0V Von=5
S_MD3_Trig2_tFLININ_N4         MD3_Trig2_tFLININ_9 0 MD3_Trig2_tFLININ_8 0
+  _MD3_Trig2_tFLININ_N4
RS_MD3_Trig2_tFLININ_N4        MD3_Trig2_tFLININ_8 0 1G
.MODEL        _MD3_Trig2_tFLININ_N4 VSWITCH Roff=1e4 Ron=10 Voff=0V Von=5
S_MD3_Trig2_tFLININ_P         MD3_Trig2_tFLININ_3 MD3_Trig2_tFLININ_4
+  MD3_Trig2_tFLININ_1 0 _MD3_Trig2_tFLININ_P
RS_MD3_Trig2_tFLININ_P        MD3_Trig2_tFLININ_1 0 1G
.MODEL        _MD3_Trig2_tFLININ_P VSWITCH Roff=1e6 Ron=10 Voff=5V Von=0V
S_MD3_Trig2_tFLININ_N         MD3_Trig2_tFLININ_4 0 MD3_Trig2_tFLININ_1 0
+  _MD3_Trig2_tFLININ_N
RS_MD3_Trig2_tFLININ_N        MD3_Trig2_tFLININ_1 0 1G
.MODEL        _MD3_Trig2_tFLININ_N VSWITCH Roff=1e6 Ron=10 Voff=0V Von=5V
X_MD3_Trig2_tFLININ_comp1         MD3_Trig2_tFLININ_2 MD3_Trig2_tFLININ_4
+  MD3_Trig2_tFLININ_6 COMP
X_MD3_Trig2_tFLININ_comp2         MD3_Trig2_tFLININ_4 MD3_Trig2_tFLININ_5
+  MD3_Trig2_tFLININ_7 COMP
E_MD3_Trig2_tFLININ_ABM1         MD3_Trig2_tFLININ_2 0 VALUE {
+  5*EXP(-200n/10/10n)    }
E_MD3_Trig2_tFLININ_ABM2         MD3_Trig2_tFLININ_5 0 VALUE { 5-5*
+  EXP(-200n/10/10n)    }
R_MD3_R2         HIN3 VCC 100k TC=-0.0109461, 0.000068284
R_MD3_R1         LIN3 VCC 100k TC=-0.0109461, 0.000068284
D_MD3_D1         HIN3 VCC DIODE25 
D_MD3_D2         0 HIN3 DIODE15 
D_MD3_D3         LIN3 VCC DIODE25 
D_MD3_D4         0 LIN3 DIODE15 
D_MD11_D6         0 FAULT DIODE25 
S_MD11_S2         FAULT MD11_5 MD11_Inv2_4 0 _MD11_S2
RS_MD11_S2        MD11_Inv2_4 0 1G
.MODEL        _MD11_S2 VSWITCH Roff=1e8 Ron=1 Voff=0.0 Von=5V
R_MD11_R3         0 ITRIP 166.7k TC=-0.00284965, 3.4965e-06
V_MD11_Inv_V         MD11_Inv_2 0 5V
C_MD11_Inv_C         0 MD11_Nor_1  10p  
R_MD11_Inv_R         MD11_Nor_1 MD11_Inv_3  10  
S_MD11_Inv_P         MD11_Inv_2 MD11_Inv_3 MD10_Inv1_1 0 _MD11_Inv_P
RS_MD11_Inv_P        MD10_Inv1_1 0 1G
.MODEL        _MD11_Inv_P VSWITCH Roff=1e4 Ron=10 Voff=5V Von=0V
S_MD11_Inv_N         MD11_Inv_3 0 MD10_Inv1_1 0 _MD11_Inv_N
RS_MD11_Inv_N        MD10_Inv1_1 0 1G
.MODEL        _MD11_Inv_N VSWITCH Roff=1e4 Ron=10 Voff=0V Von=5V
V_MD11_Nor_V         MD11_Nor_3 0 5V
R_MD11_Nor_R         MD11_Inv2_1 MD11_Nor_5  10  
C_MD11_Nor_C         0 MD11_Inv2_1  10p  
S_MD11_Nor_P1         MD11_Nor_3 MD11_Nor_4 MD11_Nor_1 0 _MD11_Nor_P1
RS_MD11_Nor_P1        MD11_Nor_1 0 1G
.MODEL        _MD11_Nor_P1 VSWITCH Roff=1e4 Ron=10 Voff=5V Von=0V
S_MD11_Nor_P2         MD11_Nor_4 MD11_Nor_5 MD11_tFLT_9 0 _MD11_Nor_P2
RS_MD11_Nor_P2        MD11_tFLT_9 0 1G
.MODEL        _MD11_Nor_P2 VSWITCH Roff=1e4 Ron=10 Voff=5V Von=0V
S_MD11_Nor_N1         MD11_Nor_5 0 MD11_tFLT_9 0 _MD11_Nor_N1
RS_MD11_Nor_N1        MD11_tFLT_9 0 1G
.MODEL        _MD11_Nor_N1 VSWITCH Roff=1e4 Ron=10 Voff=0V Von=5V
S_MD11_Nor_N2         MD11_Nor_5 0 MD11_Nor_1 0 _MD11_Nor_N2
RS_MD11_Nor_N2        MD11_Nor_1 0 1G
.MODEL        _MD11_Nor_N2 VSWITCH Roff=1e4 Ron=10 Voff=0V Von=5V
C_MD11_tFLT_C5         0 MD11_tFLT_9  10p IC=0V 
C_MD11_tFLT_C3         0 MD11_tFLT_7  10p  
C_MD11_tFLT_C4         0 MD11_tFLT_8  10p  
C_MD11_tFLT_C         0 MD11_tFLT_5  10n  
V_MD11_tFLT_V1         MD11_tFLT_11 0 5V
V_MD11_tFLT_V2         MD11_tFLT_12 0 5V
V_MD11_tFLT_V         MD11_tFLT_4 0 5V
S_MD11_tFLT_P1         MD11_tFLT_11 MD11_tFLT_13 MD11_tFLT_7 0 _MD11_tFLT_P1
RS_MD11_tFLT_P1        MD11_tFLT_7 0 1G
.MODEL        _MD11_tFLT_P1 VSWITCH Roff=1e4 Ron=10 Voff=5 Von=0V
S_MD11_tFLT_P2         MD11_tFLT_13 MD11_tFLT_10 MD11_tFLT_9 0 _MD11_tFLT_P2
RS_MD11_tFLT_P2        MD11_tFLT_9 0 1G
.MODEL        _MD11_tFLT_P2 VSWITCH Roff=1e4 Ron=10 Voff=5 Von=0V
S_MD11_tFLT_N1         MD11_tFLT_10 0 MD11_tFLT_9 0 _MD11_tFLT_N1
RS_MD11_tFLT_N1        MD11_tFLT_9 0 1G
.MODEL        _MD11_tFLT_N1 VSWITCH Roff=1e4 Ron=10 Voff=0V Von=5
S_MD11_tFLT_N2         MD11_tFLT_10 0 MD11_tFLT_7 0 _MD11_tFLT_N2
RS_MD11_tFLT_N2        MD11_tFLT_7 0 1G
.MODEL        _MD11_tFLT_N2 VSWITCH Roff=1e4 Ron=10 Voff=0V Von=5
S_MD11_tFLT_P3         MD11_tFLT_12 MD11_tFLT_14 MD11_tFLT_10 0 _MD11_tFLT_P3
RS_MD11_tFLT_P3        MD11_tFLT_10 0 1G
.MODEL        _MD11_tFLT_P3 VSWITCH Roff=1e4 Ron=10 Voff=5 Von=0V
S_MD11_tFLT_P4         MD11_tFLT_14 MD11_tFLT_9 MD11_tFLT_8 0 _MD11_tFLT_P4
RS_MD11_tFLT_P4        MD11_tFLT_8 0 1G
.MODEL        _MD11_tFLT_P4 VSWITCH Roff=1e4 Ron=10 Voff=5 Von=0V
S_MD11_tFLT_N3         MD11_tFLT_9 0 MD11_tFLT_8 0 _MD11_tFLT_N3
RS_MD11_tFLT_N3        MD11_tFLT_8 0 1G
.MODEL        _MD11_tFLT_N3 VSWITCH Roff=1e4 Ron=10 Voff=0V Von=5
S_MD11_tFLT_N4         MD11_tFLT_9 0 MD11_tFLT_10 0 _MD11_tFLT_N4
RS_MD11_tFLT_N4        MD11_tFLT_10 0 1G
.MODEL        _MD11_tFLT_N4 VSWITCH Roff=1e4 Ron=10 Voff=0V Von=5
S_MD11_tFLT_P         MD11_tFLT_4 MD11_tFLT_5 MD11_RS_4 0 _MD11_tFLT_P
RS_MD11_tFLT_P        MD11_RS_4 0 1G
.MODEL        _MD11_tFLT_P VSWITCH Roff=1e6 Ron={RrisetFLT} Voff=5V Von=0V
S_MD11_tFLT_N         MD11_tFLT_5 0 MD11_RS_4 0 _MD11_tFLT_N
RS_MD11_tFLT_N        MD11_RS_4 0 1G
.MODEL        _MD11_tFLT_N VSWITCH Roff=1e6 Ron={RfalltFLT} Voff=0V Von=5V
X_MD11_tFLT_U20         MD11_tFLT_3 MD11_tFLT_5 MD11_tFLT_7 COMP
X_MD11_tFLT_U21         MD11_tFLT_5 MD11_tFLT_6 MD11_tFLT_8 COMP
E_MD11_tFLT_Turn_On_Vth         MD11_tFLT_3 0 VALUE { (5*EXP(-({tFLTonT1}+(
+ {tFLTonT3}-{tFLTonT1})/({T3}-{T1})*(TEMP-{T1}))/{RfalltFLT}/10n))/(5*EXP(-(
+ {tFLTonT1}+({tFLTonT3}-{tFLTonT1})/({T3}-{T1})*({T2}-{T1}))/
+ {RfalltFLT}/10n))*5*EXP(-{tFLTonT2}/{RfalltFLT}/10n)*(EXP(-({tFLTonV1}+(
+ {tFLTonV3}-{tFLTonV1})/({V3}-{V1})*(V(VCC)-{V1}))/{RfalltFLT}/10n))/((EXP(-( 
+ {tFLTonV1}+({tFLTonV3}-{tFLTonV1})/({V3}-{V1})*({V2}-{V1}))/{RfalltFLT}/10n))) 
+    }
E_MD11_tFLT_Turn_Off_Vth         MD11_tFLT_6 0 VALUE { (5-5* EXP(-( 
+ {tFLToffT1}+({tFLToffT3}-{tFLToffT1})/({T3}-{T1})*(TEMP-{T1}))/
+ {RrisetFLT}/10n))/(5-5* EXP(-( {tFLToffT1}+({tFLToffT3}-{tFLToffT1})/({T3}-
+ {T1})*({T2}-{T1}))/{RrisetFLT}/10n))*(5-5*EXP(-{tFLToffT2}/
+ {RrisetFLT}/10n))*(1-EXP(-( {tFLToffV1}+({tFLToffV3}-{tFLToffV1})/({V3}-
+ {V1})*(V(VCC)-{V1})) /{RrisetFLT}/ 10n))/(1-EXP(-( {tFLToffV1}+({tFLToffV3}-
+ {tFLToffV1})/({V3}-{V1})*({V2}-{V1})) /{RrisetFLT}/ 10n))    }
C_MD11_tItrip_C5         0 MD10_Nor3_1  10p IC=0V 
C_MD11_tItrip_C3         0 MD11_tItrip_7  10p  
C_MD11_tItrip_C4         0 MD11_tItrip_8  10p  
C_MD11_tItrip_C         0 MD11_tItrip_5  10n  
V_MD11_tItrip_V1         MD11_tItrip_11 0 5V
V_MD11_tItrip_V2         MD11_tItrip_12 0 5V
V_MD11_tItrip_V         MD11_tItrip_4 0 5V
S_MD11_tItrip_P1         MD11_tItrip_11 MD11_tItrip_13 MD11_tItrip_7 0
+  _MD11_tItrip_P1
RS_MD11_tItrip_P1        MD11_tItrip_7 0 1G
.MODEL        _MD11_tItrip_P1 VSWITCH Roff=1e4 Ron=10 Voff=5 Von=0V
S_MD11_tItrip_P2         MD11_tItrip_13 MD11_tItrip_10 MD10_Nor3_1 0
+  _MD11_tItrip_P2
RS_MD11_tItrip_P2        MD10_Nor3_1 0 1G
.MODEL        _MD11_tItrip_P2 VSWITCH Roff=1e4 Ron=10 Voff=5 Von=0V
S_MD11_tItrip_N1         MD11_tItrip_10 0 MD10_Nor3_1 0 _MD11_tItrip_N1
RS_MD11_tItrip_N1        MD10_Nor3_1 0 1G
.MODEL        _MD11_tItrip_N1 VSWITCH Roff=1e4 Ron=10 Voff=0V Von=5
S_MD11_tItrip_N2         MD11_tItrip_10 0 MD11_tItrip_7 0 _MD11_tItrip_N2
RS_MD11_tItrip_N2        MD11_tItrip_7 0 1G
.MODEL        _MD11_tItrip_N2 VSWITCH Roff=1e4 Ron=10 Voff=0V Von=5
S_MD11_tItrip_P3         MD11_tItrip_12 MD11_tItrip_14 MD11_tItrip_10 0
+  _MD11_tItrip_P3
RS_MD11_tItrip_P3        MD11_tItrip_10 0 1G
.MODEL        _MD11_tItrip_P3 VSWITCH Roff=1e4 Ron=10 Voff=5 Von=0V
S_MD11_tItrip_P4         MD11_tItrip_14 MD10_Nor3_1 MD11_tItrip_8 0
+  _MD11_tItrip_P4
RS_MD11_tItrip_P4        MD11_tItrip_8 0 1G
.MODEL        _MD11_tItrip_P4 VSWITCH Roff=1e4 Ron=10 Voff=5 Von=0V
S_MD11_tItrip_N3         MD10_Nor3_1 0 MD11_tItrip_8 0 _MD11_tItrip_N3
RS_MD11_tItrip_N3        MD11_tItrip_8 0 1G
.MODEL        _MD11_tItrip_N3 VSWITCH Roff=1e4 Ron=10 Voff=0V Von=5
S_MD11_tItrip_N4         MD10_Nor3_1 0 MD11_tItrip_10 0 _MD11_tItrip_N4
RS_MD11_tItrip_N4        MD11_tItrip_10 0 1G