Version 4
SHEET 1 1432 768
WIRE 176 16 -224 16
WIRE 240 16 176 16
WIRE 400 16 336 16
WIRE 560 16 400 16
WIRE 784 16 640 16
WIRE 912 16 784 16
WIRE 1024 16 912 16
WIRE 1120 16 1024 16
WIRE 784 32 784 16
WIRE 176 112 176 16
WIRE 176 112 160 112
WIRE 400 112 400 16
WIRE 784 128 784 112
WIRE 320 144 320 64
WIRE 320 144 160 144
WIRE 1120 160 1120 16
WIRE 0 176 -80 176
WIRE 176 176 160 176
WIRE 0 208 -32 208
WIRE 320 208 160 208
WIRE 912 208 912 16
WIRE 1024 208 1024 16
WIRE -32 256 -32 208
WIRE 528 256 -32 256
WIRE 784 256 784 192
WIRE 784 256 720 256
WIRE -224 288 -224 16
WIRE -80 288 -80 176
WIRE 320 304 320 208
WIRE 528 352 496 352
WIRE 752 352 720 352
WIRE -224 400 -224 368
WIRE -80 400 -80 352
WIRE -80 400 -224 400
WIRE 176 400 176 176
WIRE 176 400 -80 400
WIRE 208 400 176 400
WIRE 320 400 320 384
WIRE 320 400 288 400
WIRE 400 400 400 176
WIRE 400 400 320 400
WIRE 496 400 496 352
WIRE 496 400 400 400
WIRE 752 400 752 352
WIRE 752 400 496 400
WIRE 912 400 912 272
WIRE 912 400 752 400
WIRE 1024 400 1024 272
WIRE 1024 400 912 400
WIRE 1120 400 1120 240
WIRE 1120 400 1024 400
WIRE -224 416 -224 400
FLAG -224 416 0
SYMBOL _PERSONAL\\regulators\\LM5023 80 160 R0
SYMATTR InstName U1
SYMBOL voltage -224 272 R0
WINDOW 123 0 0 Left 0
WINDOW 39 0 0 Left 0
SYMATTR InstName V1
SYMATTR Value 45
SYMBOL _PERSONAL\\nmos\\IRF\\IRFP4468 240 64 R270
SYMATTR InstName U2
SYMBOL ind 544 32 R270
WINDOW 0 32 56 VTop 2
WINDOW 3 5 56 VBottom 2
SYMATTR InstName L1
SYMATTR Value 330µ
SYMBOL schottky 384 176 M180
WINDOW 0 24 64 Left 2
WINDOW 3 24 0 Left 2
SYMATTR InstName D1
SYMATTR Value MBR20100CT
SYMATTR Description Diode
SYMATTR Type diode
SYMBOL cap -64 288 M0
SYMATTR InstName C1
SYMATTR Value 470p
SYMBOL zener 800 192 R180
WINDOW 0 24 64 Left 2
WINDOW 3 24 0 Left 2
SYMATTR InstName D2
SYMATTR Value KDZ10B
SYMATTR Description Diode
SYMATTR Type diode
SYMBOL res 768 16 R0
SYMATTR InstName R1
SYMATTR Value 1k
SYMBOL Optos\\PC817A 624 304 M0
SYMATTR InstName U3
SYMBOL res 304 384 R90
WINDOW 0 0 56 VBottom 2
WINDOW 3 32 56 VTop 2
SYMATTR InstName R2
SYMATTR Value 0.015
SYMBOL res 304 400 M180
WINDOW 0 36 76 Left 2
WINDOW 3 36 40 Left 2
SYMATTR InstName R3
SYMATTR Value 10k
SYMBOL polcap 896 208 R0
WINDOW 3 24 56 Left 2
SYMATTR InstName C3
SYMATTR Value 10000µ
SYMATTR Description Capacitor
SYMATTR Type cap
SYMATTR SpiceLine V=63 Irms=4.69 Rser=0.0175 Lser=20.3n mfg="Würth Elektronik" pn="861140786024 WCAP-AI3H 35x52" type="Al electrolytic"
SYMBOL res 1104 144 R0
SYMATTR InstName R4
SYMATTR Value 1
SYMBOL cap 1008 208 R0
SYMATTR InstName C2
SYMATTR Value 100n
TEXT -258 486 Left 2 !.tran 15m startup
