Version 4
SHEET 1 936 680
WIRE 640 -176 -48 -176
WIRE -48 -64 -48 -176
WIRE -48 -64 -80 -64
WIRE -16 -64 -48 -64
WIRE 560 -64 64 -64
WIRE 720 -64 560 -64
WIRE 752 -64 720 -64
WIRE 720 -16 720 -64
WIRE -304 16 -480 16
WIRE 48 16 -80 16
WIRE 128 16 48 16
WIRE 192 16 128 16
WIRE 336 16 272 16
WIRE 384 16 336 16
WIRE 480 16 384 16
WIRE 560 16 560 -64
WIRE 560 16 480 16
WIRE 48 32 48 16
WIRE -480 48 -480 16
WIRE -304 48 -480 48
WIRE 16 48 -80 48
WIRE -304 80 -384 80
WIRE -16 80 -80 80
WIRE 128 80 128 16
WIRE 144 80 128 80
WIRE 240 80 224 80
WIRE 272 80 240 80
WIRE 336 80 336 16
WIRE 384 80 384 16
WIRE -480 96 -480 48
WIRE 16 96 16 48
WIRE 48 96 16 96
WIRE 240 96 240 80
WIRE -304 112 -336 112
WIRE -48 112 -48 -64
WIRE -48 112 -80 112
WIRE 560 112 560 16
WIRE -384 128 -384 80
WIRE 480 144 480 16
WIRE -16 176 -16 80
WIRE 240 176 240 160
WIRE 240 176 -16 176
WIRE 384 176 384 160
WIRE 384 176 240 176
WIRE 720 176 720 64
WIRE 240 192 240 176
WIRE 384 192 384 176
WIRE 640 256 640 -176
WIRE 672 256 640 256
WIRE -480 288 -480 176
WIRE -384 288 -384 208
WIRE -384 288 -480 288
WIRE -336 288 -336 112
WIRE -336 288 -384 288
WIRE 240 288 240 272
WIRE 240 288 -336 288
WIRE 384 288 384 272
WIRE 384 288 240 288
WIRE 480 288 480 208
WIRE 480 288 384 288
WIRE 560 288 560 176
WIRE 560 288 480 288
WIRE 720 288 720 272
WIRE 720 288 560 288
WIRE -480 304 -480 288
FLAG -480 304 0
FLAG -80 -64 good
FLAG 752 -64 12V
SYMBOL voltage -480 80 M0
WINDOW 123 0 0 Left 0
WINDOW 39 0 0 Left 0
SYMATTR InstName V1
SYMATTR Value 100V
SYMBOL res -368 112 M0
SYMATTR InstName R1
SYMATTR Value 10k
SYMBOL _PERSONAL\\regulators\\LM5164 -192 64 R0
WINDOW 0 101 -86 Right 2
WINDOW 3 103 85 Right 2
SYMATTR InstName U2
SYMBOL cap 32 32 R0
SYMATTR InstName C1
SYMATTR Value 2n2
SYMBOL res 368 64 R0
SYMATTR InstName R2
SYMATTR Value 470k
SYMBOL res 368 176 R0
SYMATTR InstName R3
SYMATTR Value 56k
SYMBOL ind 176 32 R270
WINDOW 0 32 56 VTop 2
WINDOW 3 5 56 VBottom 2
SYMATTR InstName L1
SYMATTR Value 68µ
SYMBOL cap 336 64 R90
WINDOW 0 0 32 VBottom 2
WINDOW 3 32 32 VTop 2
SYMATTR InstName C2
SYMATTR Value 3n3
SYMBOL res 240 64 R90
WINDOW 0 0 56 VBottom 2
WINDOW 3 32 56 VTop 2
SYMATTR InstName R4
SYMATTR Value 470k
SYMBOL cap 224 96 R0
SYMATTR InstName C3
SYMATTR Value 56p
SYMBOL polcap 544 112 R0
WINDOW 3 24 56 Left 2
SYMATTR Value 100µ
SYMATTR InstName C4
SYMATTR Description Capacitor
SYMATTR Type cap
SYMATTR SpiceLine V=25 Irms=102m Rser=0.5 Lser=2.9n mfg="Würth Elektronik" pn="865090445008 WCAP-ASLU 6,3x7,7" type="Al electrolytic"
SYMBOL res 80 -80 R90
WINDOW 0 0 56 VBottom 2
WINDOW 3 32 56 VTop 2
SYMATTR InstName R5
SYMATTR Value 10k
SYMBOL cap 464 144 R0
SYMATTR InstName C5
SYMATTR Value 100n
SYMBOL res 224 176 R0
SYMATTR InstName R7
SYMATTR Value 1000k
SYMBOL _PERSONAL\\nmos\\IRFB4410Z 672 176 R0
SYMATTR InstName U1
SYMBOL res 704 -32 R0
SYMATTR InstName R6
SYMATTR Value 12
TEXT -480 -64 Left 2 !.tran 10ms startup
