.MODEL        10N20         VDMOS         (             Rg=60         Vto=0.17      Kp=1.3        Lambda=3m     Rs=0.245      Ksubthres=0.095             Mtriode=0.3   Rd=0.6        Bex=-2        Vtotc=-1.6m   Tksubthres1=2.9m            Trs1=2.6m     Trd1=3m       Cgdmax=500p   Cgdmin=10p    a=0.25        Cgs=500p      Cjo=300p      m=0.7         VJ=0.75       IS=4n         N=1           Eg=1.5        Rb=0.2        Trb1=1m       Vds=200       Ron=1         mfg=IHKT2007  )             
.MODEL        10N20_        VDMOS         (             Rg=60         Vto=0.17      Kp=1.31       Lambda=3m     Rs=0.245      Ksubthres=0.095             Mtriode=0.3   Rd=0.6        Bex=-2        Vtotc=-1.6m   ksubthres=0.095             Trs1=2.6m     Trd1=3m       Cgdmax=100p   Cgdmin=5p     a=0.25        Cgs=600p      Cjo=1100p     m=0.7         VJ=2.5        IS=4.0E-6     N=2.4         Vds=200       mfg=IHKT1906  )             
.MODEL        10N20-25      VDMOS         (             Rg=60         Vto={0.17-1.6m*0}           Lambda=3m     Rs={0.245*    (             1+2.6m*0      )}            Kp={1.30/     (             1+8.3m*0      )}            Ksubthres={0.095*           (             1+2.9m*0      )}            Mtriode=0.3   Rd={0.6*      (             1+3m*0        )}            Cgdmax=100p   Cgdmin=5p     a=0.25        Cgs=600p      Cjo=1100p     m=0.7         VJ=2.5        IS=4.0E-6     N=2.4         mfg=IH151206  )             
.MODEL        10N20-75      VDMOS         (             Rg=60         Vto={0.17-1.6m*50}          Lambda=3m     Rs={0.245*    (             1+2.6m*50     )}            Kp={1.30/     (             1+8.3m*50     )}            Ksubthres={0.095*           (             1+2.9m*50     )}            Mtriode=0.3   Rd={0.6*      (             1+3m*50       )}            Cgdmax=100p   Cgdmin=5p     a=0.25        Cgs=600p      Cjo=1100p     m=0.7         VJ=2.5        IS=4.0E-6     N=2.4         mfg=IH151206  )             
.MODEL        10P20         VDMOS         (             pchan         Rg=60         Vto=-0.535    Kp=0.995      Rs=0.37       Ksubthres=0.12              Mtriode=0.4   Rd=0.2        Lambda=5m     Bex=-2        Vtotc=+1.7m   Tksubthres1=3.1m            Trs1=3.4m     Trd1=0        Cgdmax=900p   Cgdmin=25p    a=0.25        Cgs=900p      Cjo=400p      m=0.7         VJ=0.75       IS=4u         N=2.4         Eg=1          Rb=1          Vds=-200      Ron=1         mfg=IHKT2007  )             
.MODEL        10P20_        VDMOS         (             pchan         Rg=60         Vto=-0.535    Kp=0.98       Lambda=5m     Rs=0.37       Ksubthres=0.12              Mtriode=0.4   Rd=0.2        Bex=-2        Vtotc=+1.7m   tksubthres1=3.1m            Trs1=3.4m     Cgdmax=100p   Cgdmin=5p     a=0.25        Cgs=600p      Cjo=1100p     m=0.7         VJ=2.5        IS=4.0E-6     N=2.4         Vds=200       mfg=IHKT1906  )             
.MODEL        10P20-25      VDMOS         (             pchan         Rg=60         Vto={-0.535+1.7m*0}         Rs={0.37*     (             1+3.4m*0      )}            Kp={0.995/    (             1+6.7m*0      )}            Rd=0.2        Ksubthres={0.12*            (             1+3.1m*0      )}            Mtriode=0.4   Lambda=5m     Cgdmax=215p   Cgdmin=10p    a=0.25        Cgs=900p      Cjo=1200p     m=0.7         VJ=2.5        IS=4.0E-6     N=2.4         mfg=IH151206  )             
.MODEL        10P20-75      VDMOS         (             pchan         Rg=60         Vto={-0.535+1.7m*50}        Rs={0.37*     (             1+3.4m*50     )}            Kp={0.995/    (             1+6.7m*50     )}            Rd=0.2        Ksubthres={0.12*            (             1+3.1m*50     )}            Mtriode=0.4   Lambda=5m     Cgdmax=215p   Cgdmin=10p    a=0.25        Cgs=900p      Cjo=1200p     m=0.7         VJ=2.5        IS=4.0E-6     N=2.4         mfg=IH151206  )             
.MODEL        20N20         VDMOS         (             Rg=30         Vto=0.155     Kp=2.4        Lambda=3m     Rs=0.12       Ksubthres=0.09              Mtriode=0.3   Rd=0.16       Bex=-1.9      Vtotc=-1.6m   Tksubthres1=1m              Trs1=2.5m     Trd1=3m       Cgdmax=1n     Cgdmin=20p    a=0.25        Cgs=1n        Cjo=1n        m=0.7         VJ=0.75       IS=8n         N=1           Eg=1.5        Rb=0.1        Vds=200       Ron=0.5       mfg=IHKT2007  )             
.MODEL        20N20_        VDMOS         (             nchan         Vto=-90m      Kp=1.0        Lambda=5m     Rs=34m        Rd=0.1        Rds=1e7       Cgdmax=100p   Cgdmin=5p     a=0.25        Cgs=1200p     Cjo=2000p     m=0.7         VJ=2.5        IS=4.0E-26    N=2.4         )             
.MODEL        20N20-25      VDMOS         (             Rg=30         Vto={0.155-1.6m*0}          Rs={0.12*     (             1+2.5m*0      )}            Kp={2.40/     (             1+7.4m*0      )}            Ksubthres={0.09*            (             1+1m*0        )}            Mtriode=0.3   Rd=0.16       Lambda=3m     Cgdmax=200p   Cgdmin=10p    a=0.25        Cgs=1200p     Cjo=2200p     m=0.7         VJ=2.5        IS=8.0E-6     N=2.4         mfg=IH151206  )             
.MODEL        20N20-75      VDMOS         (             Rg=30         Vto={0.155-1.6m*50}         Rs={0.12*     (             1+2.5m*50     )}            Kp={2.40/     (             1+7.4m*50     )}            Ksubthres={0.09*            (             1+1m*50       )}            Mtriode=0.3   Rd=0.16       Lambda=3m     Cgdmax=200p   Cgdmin=10p    a=0.25        Cgs=1200p     Cjo=2200p     m=0.7         VJ=2.5        IS=8.0E-6     N=2.4         mfg=IH151206  )             
.MODEL        20P20         VDMOS         (             pchan         Rg=30         Vto=-0.61     Kp=1.85       Rs=0.17       Ksubthres=0.105             Mtriode=0.35  Rd=0.05       Lambda=5m     Bex=-2        Vtotc=+2.2m   Tksubthres1=5m              Trs1=2m       Trd1=0        Cgdmax=1.9n   Cgdmin=50p    a=0.25        Cgs=1.8n      Cjo=1n        m=0.7         VJ=0.75       IS=8u         N=2.4         Eg=1          Rb=0.5        Vds=-200      Ron=0.5       mfg=IHKT2007  )             
.MODEL        20P20_        VDMOS         (             pchan         Vto=-210m     Kp=0.70       Lambda=5m     Rs=55m        Rd=0.1        Rds=1e7       Cgdmax=100p   Cgdmin=5p     a=0.25        Cgs=1800p     Cjo=2400p     m=0.7         VJ=2.5        IS=4.0E-26    N=2.4         )             
.MODEL        20P20-25      VDMOS         (             pchan         Rg=30         Vto={-0.61+2.2m*0}          Rs={0.17*     (             1+2.0m*0      )}            Kp={1.85/     (             1+8.4m*0      )}            Ksubthres={0.105*           (             1+5m*0        )}            Mtriode=0.35  Rd=0.05       Lambda=5m     Cgdmax=430p   Cgdmin=20p    a=0.25        Cgs=1800p     Cjo=2400p     m=0.7         VJ=2.5        IS=8.0E-6     N=2.4         mfg=IH151206  )             
.MODEL        20P20-75      VDMOS         (             pchan         Rg=30         Vto={-0.61+2.2m*50}         Rs={0.17*     (             1+2.0m*50     )}            Kp={1.85/     (             1+8.4m*50     )}            Ksubthres={0.105*           (             1+5m*50       )}            Mtriode=0.35  Rd=0.05       Lambda=5m     Cgdmax=430p   Cgdmin=20p    a=0.25        Cgs=1800p     Cjo=2400p     m=0.7         VJ=2.5        IS=8.0E-6     N=2.4         mfg=IH151206  )             
.MODEL        2N6661        NMOS          (             LEVEL=3       RS=0.36       NSUB=1.0E15   KAPPA=0.0506  TPG=1         CGDO=6.343E-10              RD=0.43       VTO=1.600     VMAX=1.0E7    ETA=0.0223089 NFS=6.6E10    TOX=1.0E-7    LD=1.698E-9   UO=862.425    XJ=6.4666E-7  THETA=1.0E-5  CGSO=9.09E-9  L=2.5E-6      W=5.0E-3      )             
.MODEL        2N7000        VDMOS         (             Rg=3          Vto=1.6       Rd=0          Rs=.75        Rb=.14        Kp=.17        mtriode=1.25  Cgdmax=80p    Cgdmin=12p    Cgs=50p       Cjo=50p       Is=.04p       mfg=Fairchild Vds=60        Ron=2         Qg=1.5n       )             
.MODEL        2N7002        VDMOS         (             Rg=3          Vto=1.6       Rd=0          Rs=.75        Rb=.14        Kp=.17        mtriode=1.25  Cgdmax=80p    Cgdmin=12p    Cgs=50p       Cjo=50p       Is=.04p       ksubthres=.1  mfg=Fairchild Vds=60        Ron=2         Qg=1.5n       )             
.MODEL        2N7002NEW     VDMOS         Rg=3          kp=0.3        vto=2.1       Rd=0          Rs=.75        Rb=.14        lambda=0.3m   mtriode=1.25  Cgdmax=80p    Cgdmin=12p    Cgs=50p       Cjo=50p       Is=.04p       ksubthres=50m tt=100n       theta=86m     RDS=100MEG    BV=75         ibv=10u       nbv=5         mfg=Fairchild Vds=60        Ron=2         Qg=1.5n       
.MODEL        2N9999        VDMOS         (             Rg=3          Vto=1.6       Rd=0          Rs=.75        Rb=.14        Kp=.17        mtriode=1.25  Cgdmax=80p    Cgdmin=12p    Cgs=50p       Cjo=50p       Is=.04p       mfg=Fairchild Vds=60        Ron=2         Qg=1.5n       )             
.MODEL        2SJ162        PMOS          (             VTO=-842.193M KP=20U        L=2U          W=21.3317M    GAMMA=0       PHI=600M      LAMBDA=20.7067M             RD=837.199M   CBD=2.96862N  IS=10F        CGSO=1.13517N CGDO=1.13517N TPG=1         UO=600        RG=50         RDS=1MEG      )             
.MODEL        2SJ162C       VDMOS         (             pchan         Vto=-0.08     Kp=0.6        Lambda=0.1    Rs=0.55       Rd=0.1        Rds=1e7       Cgdmax=215p   Cgdmin=10p    a=0.25        Cgs=900p      Cjo=1200p     m=0.7         VJ=2.5        IS=4.0E-06    N=2.4         )             
.MODEL        2SJ162H       VDMOS         (             pchan         Rg=60         Vto=-0.02     Kp=0.6        Lambda=5m     Rs=0.37       Ksubthres=0.12              Mtriode=0.4   Rd=0.2        Bex=-2.2      Vtotc=+1.5m   Tksubthres1=0m              Trs1=0m       Trd1=3m       Cgdmax=215p   Cgdmin=10p    a=0.25        Cgs=900p      Cjo=700p      m=0.7         VJ=0.75       IS=4u         N=2.4         Eg=1          Rb=1          Vds=160       mfg=IHBC1908  )             
.MODEL        2SJ201        VDMOS         (             pchan         Rg=10         Vto=-1.5      Kp=4.7        Lambda=2m     Rs=40m        ksubthres=0.1 Mtriode=0.5   Rd=0.07       Rb=0.02       Bex=-1.5      Vtotc=+5m     tksubthres1=0 Trs1=0m       Trd1=3m       Cgdmax=3100p  Cgdmin=55p    a=0.34        Cgs=1500p     Cjo=2800p     m=0.68        VJ=2.5        IS=4.0E-06    N=2.4         Vds=-200      Ron=0.15      mfg=IH1906    )             
.MODEL        2SJ201C       VDMOS         (             pchan         Vto=-1.5      Kp=4.5        Lambda=0.002  Rs=0.04       Rd=0.1        Rds=1e7       Cgdmax=3100p  Cgdmin=55p    a=0.34        Cgs=1500p     Cjo=2800p     m=0.68        VJ=2.5        IS=4.0E-06    N=2.4         )             
.MODEL        2SJ201H       VDMOS         (             pchan         Rg=30         Vto=-1.5      Kp=4.7        Rs=40m        Ksubthres=0.1 Mtriode=0.5   Rd=0.07       Lambda=2m     Bex=-1.5      Vtotc=+5m     Tksubthres1=0 Trs1=0m       Trd1=3m       Cgdmax=2.4n   Cgdmin=55p    a=0.34        Cgs=1.5n      Cjo=1n        m=0.5         VJ=0.75       IS=10u        N=7           Eg=3          Rb=0.05       Trb1=0m       Vds=-200      Ron=0.15      mfg=IH1907    )             
.MODEL        2SJ49C        VDMOS         (             pchan         Vto=-0.08     Kp=0.6        Lambda=0.1    Rs=0.55       Rd=0.1        Rds=1e7       Cgdmax=215p   Cgdmin=10p    a=0.25        Cgs=900p      Cjo=1200p     m=0.7         VJ=2.5        IS=4.0E-06    N=2.4         )             
.MODEL        2SJ49H        VDMOS         (             pchan         Rg=60         Vto=-0.02     Kp=0.6        Lambda=5m     Rs=0.37       Ksubthres=0.12              Mtriode=0.4   Rd=0.2        Bex=-2.2      Vtotc=+1.5m   Tksubthres1=0m              Trs1=0m       Trd1=3m       Cgdmax=215p   Cgdmin=10p    a=0.25        Cgs=900p      Cjo=700p      m=0.7         VJ=0.75       IS=4u         N=2.4         Eg=1          Rb=1          Vds=140       mfg=IHBC1908  )             
.MODEL        2SJ554        Vdmos         (             Pchan         Rg=23         Rd=22m        Rs=16m        Vto=-2        Kp=10         Cgdmax=3n     Cgdmin=30p    A=0.44        Cgs=2n        Cjo=2.9n      mfg=Hitachi   Vds=-60       Ron=38m       Qg=40n        ksubthres=.1  )             
.MODEL        2SJ79         PMOS          (             VTO=322.944M  KP=20U        L=2U          W=3.50594M    GAMMA=0       PHI=600M      LAMBDA=24.1203M             RD=1.88227    IS=10F        CGSO=1.65276N CGDO=1.65276N RG=10         RDS=1MEG      )             
.MODEL        2SK1056C      VDMOS         (             nchan         Vto=0.02      Kp=0.85       Lambda=0.02   Rs=0.62       Rd=0.1        Rds=1e7       Cgdmax=100p   Cgdmin=5p     a=0.25        Cgs=600p      Cjo=1080p     m=0.7         VJ=2.5        IS=4.0E-06    N=2.4         )             
.MODEL        2SK1058       NMOS          (             VTO=403.969M  KP=20U        L=2U          W=29.7482M    GAMMA=0       PHI=600M      LAMBDA=184.988F             RD=60.8251M   CBD=2.56138N  IS=10F        CGSO=1.13517N CGDO=1.13517N TPG=1         UO=600        RG=50         RDS=1MEG      )             
.MODEL        2SK1058H      VDMOS         (             Rg=60         Vto=0.05      Kp=0.6        Lambda=3m     Rs=0.245      Ksubthres=0.095             Mtriode=0.3   Rd=0.6        Bex=-2.3      Vtotc=-1.6m   Tksubthres1=0m              Trs1=0m       Trd1=3m       Cgdmax=100p   Cgdmin=5p     a=0.25        Cgs=600p      Cjo=500p      m=0.7         VJ=0.75       IS=4n         N=1           Eg=1.5        Rb=0.2        Vds=160       mfg=IH1908    )             
.MODEL        2SK134C       VDMOS         (             nchan         Vto=0.02      Kp=0.85       Lambda=0.02   Rs=0.62       Rd=0.1        Rds=1e7       Cgdmax=100p   Cgdmin=5p     a=0.25        Cgs=600p      Cjo=1080p     m=0.7         VJ=2.5        IS=4.0E-06    N=2.4         )             
.MODEL        2SK134H       VDMOS         (             Rg=60         Vto=0.05      Kp=0.6        Lambda=3m     Rs=0.245      Ksubthres=0.095             Mtriode=0.3   Rd=0.6        Bex=-2.3      Vtotc=-1.6m   Tksubthres1=0m              Trs1=0m       Trd1=3m       Cgdmax=100p   Cgdmin=5p     a=0.25        Cgs=600p      Cjo=500p      m=0.7         VJ=0.75       IS=4n         N=1           Eg=1.5        Rb=0.2        Vds=140       mfg=IHBC1908  )             
.MODEL        2SK1489       NMOS          (             LEVEL=3       L=2u          W=4.8         KP=1.0362u    RS=10m        RD=.7366      VTO=2.2500    RDS=5.3333E6  TOX=2u        CGSO=1.9n     CGDO=31.4p    CBD=3.74n     MJ=1.1448     PB=2.0044     RG=10m        IS=5.1802m    N=5           RB=1n         GAMMA=0       KAPPA=0       )             
.MODEL        2SK1530       VDMOS         (             Rg==20        Vto=1.65      Kp=11         Lambda=2m     Rs=80m        ksubthres=0.1 Mtriode=0.35  Rd=0.1        Rb=0.02       Bex=-2        Vtotc=-1.6m   tksubthres=0  Trs1=0m       Trd1=3m       Cgdmax=1500p  Cgdmin=15p    a=0.33        Cgs=880p      Cjo=1260p     m=0.68        VJ=2.5        IS=4.0E-06    N=2.4         Vds=200       Ron=0.2       mfg=IH1906    )             
.MODEL        2SK1530C      VDMOS         (             nchan         Vto=1.55      Kp=9.0        Lambda=0.002  Rs=0.025      Rd=0.1        Rds=1e7       Cgdmax=1500p  Cgdmin=15p    a=0.33        Cgs=880p      Cjo=1260p     m=0.68        VJ=2.5        IS=4.0E-06    N=2.4         )             
.MODEL        2SK1530H      VDMOS         (             Rg=35         Vto=1.6       Kp=11         Rs=25m        Ksubthres=0.1 Mtriode=0.35  Rd=0.1        Lambda=2m     Bex=-2.2      Vtotc=-5m     Tksubthres1=0 Trs1=3m       Trd1=3m       Cgdmax=1500p  Cgdmin=15p    a=0.33        Cgs=880p      Cjo=300p      m=0.5         VJ=0.75       IS=10n        N=1.5         Eg=1.1        Rb=0.03       Trb1=3m       Vds=200       Ron=0.2       mfg=IH1907    )             
.MODEL        2SK216        NMOS          (             VTO=-41.5076M KP=20U        L=2U          W=11.0669M    GAMMA=0       PHI=600M      LAMBDA=1.73074M             RD=118.643    CBD=157.257P  IS=10F        CGSO=1.65276N CGDO=1.65276N RG=10         RDS=1MEG      )             
.MODEL        3N163         VDMOS         (             pchan         Vto=-3.0      Rd=10         Rs=100        Kp=4.0m       Lambda=21m    Cgdmin=0.2p   Cgdmax=1.9p   A=0.26        Cgs=1.9p      N=1.02        M=0.68        Cjo=3.5p      Is=0.05p      VJ=2.5        TT=24n        ksubthres=150m              mtriode=0.6   mfg=Linear_Systems          Vds=40        Ron=400       )             
.MODEL        AN0116        NMOS          (             LEVEL=3       RS=2.25       NSUB=1.0E14   KAPPA=0.0506  TPG=1         CGDO=3.1716E-9              RD=3.239      VTO=2.00      VMAX=1.0E7    ETA=0.0223089 NFS=6.6E10    TOX=1.1E-7    LD=1.698E-9   UO=862.425    XJ=6.4666E-7  THETA=1.0E-5  CGSO=27E-9    L=4.0E-6      W=270E-6      )             
.MODEL        AN0120        NMOS          (             LEVEL=3       RS=2.25       NSUB=1.0E14   KAPPA=0.0506  TPG=1         CGDO=3.1716E-9              RD=3.239      VTO=2.00      VMAX=1.0E7    ETA=0.0223089 NFS=6.6E10    TOX=1.1E-7    LD=1.698E-9   UO=862.425    XJ=6.4666E-7  THETA=1.0E-5  CGSO=27E-9    L=4.0E-6      W=270E-6      )             
.MODEL        AN0130        NMOS          (             LEVEL=3       RS=2.25       NSUB=1.0E14   KAPPA=0.0506  TPG=1         CGDO=3.1716E-9              RD=3.239      VTO=2.00      VMAX=1.0E7    ETA=0.0223089 NFS=6.6E10    TOX=1.1E-7    LD=1.698E-9   UO=862.425    XJ=6.4666E-7  THETA=1.0E-5  CGSO=27E-9    L=4.0E-6      W=270E-6      )             
.MODEL        AN0132        NMOS          (             LEVEL=3       RS=2.25       NSUB=1.0E14   KAPPA=0.0506  TPG=1         CGDO=3.1716E-9              RD=3.239      VTO=2.00      VMAX=1.0E7    ETA=0.0223089 NFS=6.6E10    TOX=1.1E-7    LD=1.698E-9   UO=862.425    XJ=6.4666E-7  THETA=1.0E-5  CGSO=27E-9    L=4.0E-6      W=270E-6      )             
.MODEL        AN0140        NMOS          (             LEVEL=3       RS=2.25       NSUB=1.0E14   KAPPA=0.0506  TPG=1         CGDO=3.1716E-9              RD=3.239      VTO=2.00      VMAX=1.0E7    ETA=0.0223089 NFS=6.6E10    TOX=1.1E-7    LD=1.698E-9   UO=862.425    XJ=6.4666E-7  THETA=1.0E-5  CGSO=27E-9    L=4.0E-6      W=270E-6      )             
.MODEL        AO3401        VDMOS         Rg=7.8        Rd=0m         Rs=0.2m       Vto=-1.2      Kp=17         Cgdmax=400p   Cgdmin=80p    Cgs=645p      Cjo=147p      Is=10p        Rb=0.2m       Pchan         mfg=Alpha_&_Omega           ksubthres=.1  
.MODEL        AO3415        VDMOS         pchan         RG=6.5        VTO=-0.80     KP=45         CGS=1300p     Rd=33m        Rs=3m         Rb=7.4m       lambda=1m     vj=0.7        m=0.5         A=0.6         mtriode=2     Cgdmax=1400p  Cgdmin=120p   Cjo=170p      is=7.85E-13   tt=45n        theta=400m    RDS=16MEG     BV=35         ibv=250u      nbv=5         ksubthres=100m              mfg=Alpha_&_Omega           Vds=20        Ron=54m       Qg=17.2n      
.MODEL        AO3415A       VDMOS         pchan         RG=13         VTO=-0.75     KP=45         CGS=650p      Rd=32m        Rs=4m         Rb=7.4m       lambda=1m     vj=0.7        m=0.5         A=0.6         mtriode=2     Cgdmax=700p   Cgdmin=60p    Cjo=170p      is=7.85E-13   tt=39n        theta=400m    RDS=20MEG     BV=35         ibv=250u      nbv=5         ksubthres=100m              mfg=Alpha_&_Omega           Vds=20        Ron=53m       Qg=9.3n       
.MODEL        AO3416        VDMOS         (             Rg=3.0        Rd=0m         Rs=0.2m       Vto=0.7       Kp=50         Cgdmax=500p   Cgdmin=100p   Cgs=160p      Cjo=690p      Is=10p        Rb=0.2m       mfg=Alpha_&_Omega           ksubthres=.1  
.MODEL        AO3423        VDMOS         (             pchan         Kp=6.8        Rs=0.0584     Rd=0.0043     Rg=11.2       Vto=-0.85     mtriode=.6    Ksubthres=.1  Lambda=0.001  Cgdmax=287p   Cgdmin=13p    Cgs=288p      tt=09n        A=0.43        Is=5.85E-07   N=1.856       Rb=0.019095   M=1.379       Vj=6.84       Cjo=90.0pF    mfg=AOS       Vds=-20       Ron=76m       Qg=3.2n       )             
.MODEL        AO4614B_N     VDMOS         (             Kp=19.4363    Rs=0.006      Rd=0.0105     Rg=4.6        Vto=2.68      mtriode=1.2   Ksubthres=.0001             Lambda=0.14   Cgdmax=349p   Cgdmin=17p    Cgs=473p      tt=26n        A=0.24        Is=7.78E-15   N=0.896       Rb=0.007406   m=0.963       Vj=4.79       Cjo=190.0pF   mfg=AOS       Vds=40        Ron=24m       Qg=4.3n       )             
.MODEL        AO4614B_P     VDMOS         (             pchan         Kp=13.4564    Rs=0.0004     Rd=0.0259     Rg=14.0       Vto=-2.55     mtriode=.85   Ksubthres=.1  Lambda=0.11   Cgdmax=572p   Cgdmin=28p    Cgs=868p      tt=30n        A=0.23        Is=1.26E-10   N=1.276       Rb=0.00823    m=1.322       Vj=6.13       Cjo=170.0pF   mfg=AOS       Vds=-40       Ron=36m       Qg=7.9n       )             
.MODEL        AO4630_N      VDMOS         (             Kp=34.4022    Rs=0.0002     Rd=0.0144     Rg=3.0        Vto=1.1       mtriode=.75   Ksubthres=.1  Lambda=0.006  Cgdmax=353p   Cgdmin=23p    Cgs=625p      tt=09n        A=0.39        Is=1.12E-11   N=1.07        Rb=0.009475   M=0.316       Vj=0.12       Cjo=139.0pF   mfg=AOS       Vds=30        Ron=17.8m     Qg=6n         )             
.MODEL        AO4630_P      VDMOS         (             Kp=18.0859    Rs=0.0092     Rd=0.0244     Rg=8.0        Vto=-1.1      mtriode=.8    Ksubthres=.1  Lambda=0.024  Cgdmax=465p   Cgdmin=46p    Cgs=640p      tt=22n        A=0.78        Is=7.98E-10   N=1.291       Rb=0.01468    M=0.621       Vj=1.41       Cjo=92.0pF    PCHAN         mfg=AOS       Vds=-30       Ron=40m       Qg=7n         )             
.MODEL        AO6404        VDMOS         (             Rg=1.6        Rd=4.8m       Rs=3.6m       Vto=1         Kp=90         Cgdmax=.8n    Cgdmin=170p   Cgs=1.6n      Cjo=.36n      Is=36p        Rb=6m         ksubthres=.1  mfg=Alpha_&_Omega           Vds=20        Ron=13.4m     Qg=17.9n      )             
.MODEL        AO6407        VDMOS         (             pchan         Rg=3          Rd=14m        Rs=10m        Vto=-.8       Kp=32         Cgdmax=.5n    Cgdmin=.07n   Cgs=.9n       Cjo=.26n      Is=26p        Rb=17m        ksubthres=.1  mfg=Alpha_&_Omega           Vds=-20       Ron=34m       Qg=13n        )             
.MODEL        AO6408        VDMOS         (             Rg=3          Rd=4.8m       Rs=3.6m       Vto=1         Kp=90         Cgdmax=.7n    Cgdmin=.25n   Cgs=1n        Cjo=.36n      Is=36p        Rb=6m         ksubthres=.1  mfg=Alpha_&_Omega           Vds=20        Ron=12m       Qg=18n        )             
.MODEL        AO6608_N      VDMOS         (             Kp=14.1084    Rs=0.0239     Rd=0.0137     Rg=1.8        Vto=.96       mtriode=1     Ksubthres=.1  Lambda=0.045  Cgdmax=206p   Cgdmin=11p    Cgs=217p      tt=09n        A=0.7         Is=3.76E-11   N=1.183       Rb=0.011952   M=0.235       Vj=0.1        Cjo=61.0pF    mfg=AOS       Vds=30        Ron=46m       Qg=3n         )             
.MODEL        AO6608_P      VDMOS         (             Kp=13         Rs=0.0137     Rd=0.032      Rg=15.0       Vto=-0.69     mtriode=.8    Ksubthres=.01 Lambda=0.03   Cgdmax=632p   Cgdmin=28p    Cgs=460p      tt=23n        A=1.07        Is=7.52E-09   N=1.36        Rb=0.029116   M=0.484       Vj=0.48       Cjo=89.0pF    PCHAN         mfg=AOS       Vds=-20       Ron=63m       Qg=6n         )             
.MODEL        AOB2500L      VDMOS         (             Kp=170.4814   Rs=0.0001     Rd=0.0042     Rg=2.1        Vto=3.68      mtriode=1.5   Ksubthres=0.01              Lambda=0.04   Cgdmax=1447p  Cgdmin=41p    Cgs=6405p     tt=130n       A=0.52        Is=8.10E-12   N=0.998       Rb=0.001224   m=0.41        Vj=0.1        Cjo=9100.0pF  mfg=AOS       Vds=150       Ron=5.1m      Qg=97n        )             
.MODEL        AOB66518L     VDMOS         (             Kp=59         Rs=0.0        Rd=0.0001     Rg=2.3        Vto=4.28      Vtotc=-4m     Bex=-1.1      mtriode=1.2   Ksubthres=.01 Lambda=0.023  Cgdmax=1370p  Cgdmin=3p     Cgs=6455p     tt=124n       A=3.55        Is=1.08E-11   N=1.031       Rb=0.000723   M=0.605       Vj=1.41       Cjo=9112.0pF  mfg=AOS       Vds=150       Ron=4.2m      Qg=80n        )             
.MODEL        AOB66613L     VDMOS         (             KP=110        Rs=0.1m       Rd=1.42m      Rg=0.9        Vto=4.08      mtriode=3.2   Ksubthres=116m              VtoTc=-4.5m   Bex=-0.8      Trd1=5.4m     Trd2=15u      Trb1=3.9m     Lambda=0.076  Cgdmax=2848p  Cgdmin=0p     Cgs=5265p     tt=43n        A=0.74        Is=3.90E-12   N=1.016       Rb=0.001669   BV=70         IBV=250u      M=0.841       Vj=8.82       Cjo=4648.0pF  mfg=AOS       Vds=60        Ron=2m        Qg=78n        )             
.MODEL        AOB66616L     VDMOS         (             Kp=100        Rs=100u       Rd=0.0001     Rg=1.25       Vto=3.82      mtriode=1.2   Ksubthres=0.1 Lambda=0.20   Cgdmax=1541p  Cgdmin=22p    Cgs=2532p     tt=37n        A=1.23        Is=1.78E-09   N=1.344       Rb=0.000001   M=1.069       Vj=16.32      Cjo=2750.0pF  mfg=AOS       Vds=60        Ron=2.5m      Qg=42.5n      )             
.MODEL        AOB66914L     VDMOS         (             Kp=147        Rs=100u       Rd=0.0011     Rg=1.75       Vto=3.84      VtoTc=-4.2m   mtriode=4.2   Ksubthres=.21 Lambda=0.052  Cgdmax=2409p  Cgdmin=19p    Cgs=12445p    tt=79n        A=0.48        Is=5.58E-11   N=1.155       Rb=1u         M=1.388       Eg=1.049      Vj=39.13      Cjo=8445.0pF  mfg=AOS       Vds=100       Ron=2.2m      Qg=48n        )             
.MODEL        AOB66916L     VDMOS         (             Kp=151.3055   RS=0.0        Rd=0.002      Rg=1.5        Vto=3.8       mtriode=.8    Ksubthres=.1  Lambda=0.079  Cgdmax=844p   Cgdmin=11p    Cgs=6151p     tt=65n        A=0.36        Is=7.82E-13   N=0.939       Rb=0.003233   M=0.975       Vj=30.74      Cjo=4180.0pF  mfg=AOS       Vds=100       Ron=2.95m     Qg=78n        )             
.MODEL        AOD280A60     VDMOS         (             Kp=8.0432     Rs=0.0025     Rd=0.2226     Rg=5.3        Vto=4.99      Lambda=0.004  Cgdmax=813p   Cgdmin=3p     Cgs=1348p     tt=403n       A=7.77        Is=4.97E-10   N=1.386       Rb=0.003259   BV=679        IBV=1u        M=0.632       Vj=0.1        Cjo=5842.0pF  mfg=AOS       Vds=600       Ron=250m      Qg=23.5n      )             
.MODEL        AOD4184A      VDMOS         (             Kp=70.0022    Rs=0.0001     Rd=0.0038     Rg=3.0        Vto=2.61      mtriode=0.8   Ksubthres=0.1 Lambda=0.11   Cgdmax=1294p  Cgdmin=24p    Cgs=1365p     tt=42n        A=0.22        Is=5.47E-14   N=0.88        Rb=0.005291   M=0.678       Vj=1.44       Cjo=500.0pF   mfg=AOS       Vds=40        Ron=5.8m      Qg=14n        )             
.MODEL        AOD4185       VDMOS         (             pchan         Kp=33.6973    Rs=0.0001     Rd=0.0086     Rg=4.0        Vto=-2.07     mtriode=0.5   Ksubthres=0.0001            Lambda=0.04   Cgdmax=1307p  Cgdmin=3p     Cgs=2360p     tt=55n        A=0.13        Is=3.18E-11   N=1.147       Rb=0.003527   M=1.17        Vj=4.92       Cjo=600.0pF   mfg=AOS       Vds=-40       Ron=12.5m     Qg=18.6n      )             
.MODEL        AOD450        VDMOS         (             Kp=3          Rs=0.2282     Rd=0.1743     Rg=5.5        Vto=5.65      Lambda=0.15   mtriode=.3    Ksubthres=.01 Cgdmax=159p   Cgdmin=7p     Cgs=208p      tt=85n        A=10.53       Is=9.05E-11   N=1.316       Rb=0.01352    M=0.317       Vj=0.1        Cjo=200.0pF   mfg=AOS       Vds=200       Ron=550m      Qg=0.92n      )             
.MODEL        AOD4504       VDMOS         (             Kp=7          Rs=0.0033     Rd=0.3102     Rg=2.0        Vto=3.34      Lambda=0.03   mtriode=1     Ksubthres=0.1 Cgdmax=373p   Cgdmin=6p     Cgs=320p      tt=50n        A=0.72        Is=1.57E-06   N=2.164       Rb=0.002352   M=0.474       Vj=1.26       Cjo=100.0pF   mfg=AOS       Vds=200       Ron=333m      Qg=44n        )             
.MODEL        AOD536        VDMOS         (             Kp=42.3159    Rs=0.0038     Rd=0.001      Rg=2.5        Vto=2.4       Lambda=0.08   mtriode=1     Ksubthres=0.1 Cgdmax=237p   Cgdmin=14p    Cgs=1095p     tt=17n        A=0.18        Is=2.96E-12   N=1.058       Rb=0.004115   M=0.658       Vj=4.99       Cjo=885.0pF   mfg=AOS       Vds=30        Ron=7m        Qg=14n        )             
.MODEL        AOD66406      VDMOS         (             Kp=69.2307    Rs=0.0037     Rd=0.0001     Rg=1.8        Vto=2.52      mtriode=1.3   Ksubthres=0.01              Lambda=0.06   Cgdmax=262p   Cgdmin=0p     Cgs=1467p     tt=16n        A=0.39        Is=3.09E-13   N=0.933       Rb=0.004937   M=0.509       Vj=0.93       Cjo=1130.0pF  mfg=AOS       Vds=40        Ron=5m        Qg=8.5n       )             
.MODEL        AOE66410      VDMOS         (             Kp=705.4404   Rs=0.0        Rd=0.0006     Rg=1.1        Vto=2.75      Lambda=0.059  Cgdmax=7441p  Cgdmin=61p    Cgs=8938p     tt=40n        A=109.36      Is=1.54E-11   N=1.025       Rb=0.000558   M=0.396       Vj=1.73       Cjo=4190.0pF  mfg=AOS       Vds=40        Ron=0.83m     Qg=50n        )             
.MODEL        AOL1454       VDMOS         (             Kp=46.9341    Rs=0.0049     Rd=0.0001     Rg=3.4        Vto=2.27      Lambda=0.015  Cgdmax=1198p  Cgdmin=74p    Cgs=1500p     tt=45n        A=0.85        Is=1.30E-14   N=0.836       Rb=0.008914   BV=40         IBV=1u        M=0.489       Vj=0.91       Cjo=1019.0pF  mfg=AOS       Vds=40        Ron=7.5m      Qg=10.5n      )             