Version 4
SHEET 1 1164 680
WIRE 160 -224 -464 -224
WIRE 400 -224 160 -224
WIRE 464 -224 400 -224
WIRE 592 -224 560 -224
WIRE 704 -224 592 -224
WIRE 400 -208 400 -224
WIRE 704 -176 704 -224
WIRE -464 -112 -464 -224
WIRE 400 -112 400 -128
WIRE 512 -112 512 -160
WIRE 512 -112 400 -112
WIRE -64 -32 -336 -32
WIRE 160 -32 160 -224
WIRE 160 -32 128 -32
WIRE 192 -32 160 -32
WIRE 288 -32 272 -32
WIRE 512 -32 512 -112
WIRE 512 -32 480 -32
WIRE 192 0 128 0
WIRE -336 32 -336 -32
WIRE -64 32 -176 32
WIRE 224 32 128 32
WIRE 592 32 592 -224
WIRE -64 64 -96 64
WIRE 160 64 128 64
WIRE 224 64 224 32
WIRE 288 64 224 64
WIRE 512 64 480 64
WIRE 160 112 160 64
WIRE 160 112 -336 112
WIRE 192 112 192 0
WIRE 592 112 192 112
WIRE -176 128 -176 32
WIRE -464 224 -464 -32
WIRE -336 224 -336 192
WIRE -336 224 -464 224
WIRE -288 224 -336 224
WIRE -176 224 -176 208
WIRE -176 224 -208 224
WIRE -96 224 -96 64
WIRE -96 224 -176 224
WIRE 512 224 512 64
WIRE 512 224 -96 224
WIRE 592 224 592 192
WIRE 592 224 512 224
WIRE 704 224 704 -96
WIRE 704 224 592 224
WIRE -464 240 -464 224
FLAG -464 240 0
SYMBOL voltage -464 -128 M0
WINDOW 123 0 0 Left 0
WINDOW 39 0 0 Left 0
WINDOW 0 8 7 Left 2
WINDOW 3 12 106 Left 2
SYMATTR InstName V1
SYMATTR Value 15V
SYMBOL _PERSONAL\\misc\\ST\\TSM101 32 16 R0
WINDOW 1 -64 -80 Left 2
SYMATTR InstName X2
SYMBOL res -192 208 R90
WINDOW 0 9 56 VBottom 2
WINDOW 3 23 56 VTop 2
SYMATTR InstName SHUNT
SYMATTR Value 10m
SYMBOL res -320 16 M0
SYMATTR InstName R2
SYMATTR Value 22k
SYMBOL res -320 96 M0
SYMATTR InstName R3
SYMATTR Value 1k
SYMBOL res -192 224 M180
WINDOW 0 31 76 Left 2
WINDOW 3 31 40 Left 2
SYMATTR InstName R4
SYMATTR Value 100
SYMBOL Optos\\PC817A 384 16 R0
SYMATTR InstName U1
SYMBOL res 176 -16 R270
WINDOW 0 23 56 VTop 2
WINDOW 3 9 56 VBottom 2
SYMATTR InstName R5
SYMATTR Value 1k
SYMBOL _PERSONAL\\npn\\TIP122 464 -160 R270
SYMATTR InstName U2
SYMBOL res 384 -224 R0
SYMATTR InstName R6
SYMATTR Value 1k
SYMBOL res 576 16 R0
SYMATTR InstName R7
SYMATTR Value 22k
SYMBOL res 576 96 R0
SYMATTR InstName R8
SYMATTR Value 1k
SYMBOL res 688 -192 R0
SYMATTR InstName LOAD
SYMATTR Value 2
TEXT 0 -144 Left 2 !.tran 1 startup
TEXT -352 16 Right 2 ;current
TEXT 608 16 Left 2 ;voltage
RECTANGLE Normal -320 240 -400 32 2
RECTANGLE Normal 656 240 576 32 2
